* NGSPICE file created from user_analog_project_wrapper.ext - technology: sky130A

.subckt sky130_fd_pr__cap_mim_m3_1_P68BUM m3_n3186_n3040# c1_n3146_n3000#
X0 c1_n3146_n3000# m3_n3186_n3040# sky130_fd_pr__cap_mim_m3_1 l=3e+07u w=3e+07u
.ends

.subckt sky130_fd_pr__pfet_01v8_lvt_PH9SS5 a_n50_n297# a_50_n200# a_n108_n200# w_n246_n419#
X0 a_50_n200# a_n50_n297# a_n108_n200# w_n246_n419# sky130_fd_pr__pfet_01v8_lvt ad=5.8e+11p pd=4.58e+06u as=5.8e+11p ps=4.58e+06u w=2e+06u l=500000u
.ends

.subckt sky130_fd_pr__nfet_01v8_lvt_SMGWK2 a_n210_n574# a_50_n400# a_n108_n400# a_n50_n488#
X0 a_50_n400# a_n50_n488# a_n108_n400# a_n210_n574# sky130_fd_pr__nfet_01v8_lvt ad=1.16e+12p pd=8.58e+06u as=1.16e+12p ps=8.58e+06u w=4e+06u l=500000u
.ends

.subckt analogsub vdd Vplus voffset Vminus Nbias vout gnd
Xsky130_fd_pr__pfet_01v8_lvt_PH9SS5_0 m1_n1210_2130# m1_n1210_2130# vdd vdd sky130_fd_pr__pfet_01v8_lvt_PH9SS5
Xsky130_fd_pr__pfet_01v8_lvt_PH9SS5_1 m1_n1210_2130# vdd vout vdd sky130_fd_pr__pfet_01v8_lvt_PH9SS5
Xsky130_fd_pr__pfet_01v8_lvt_PH9SS5_2 m1_391_2121# vout vdd vdd sky130_fd_pr__pfet_01v8_lvt_PH9SS5
Xsky130_fd_pr__pfet_01v8_lvt_PH9SS5_3 m1_391_2121# vdd m1_391_2121# vdd sky130_fd_pr__pfet_01v8_lvt_PH9SS5
XXM112 gnd vout m1_0_490# Vminus sky130_fd_pr__nfet_01v8_lvt_SMGWK2
XXM113 gnd m1_0_490# m1_391_2121# Vplus sky130_fd_pr__nfet_01v8_lvt_SMGWK2
XXM114 gnd gnd m1_0_490# Nbias sky130_fd_pr__nfet_01v8_lvt_SMGWK2
XXM117 gnd m1_n1210_2130# m1_n1330_400# voffset sky130_fd_pr__nfet_01v8_lvt_SMGWK2
XXM118 gnd m1_n1330_400# vout vout sky130_fd_pr__nfet_01v8_lvt_SMGWK2
XXM119 gnd gnd m1_n1330_400# Nbias sky130_fd_pr__nfet_01v8_lvt_SMGWK2
.ends

.subckt sky130_fd_pr__res_xhigh_po_0p35_R9FY7S a_n35_n1483# a_n35_1051# a_n165_n1613#
X0 a_n35_n1483# a_n35_1051# a_n165_n1613# sky130_fd_pr__res_xhigh_po_0p35 l=1.051e+07u
.ends

.subckt sky130_fd_pr__cap_mim_m3_1_REKGFF m3_n2687_n2541# c1_n2647_n2501#
X0 c1_n2647_n2501# m3_n2687_n2541# sky130_fd_pr__cap_mim_m3_1 l=2.501e+07u w=2.501e+07u
.ends

.subckt sky130_fd_pr__cap_mim_m3_1_5B6GLN c1_n1647_n1501# m3_n1687_n1541#
X0 c1_n1647_n1501# m3_n1687_n1541# sky130_fd_pr__cap_mim_m3_1 l=1.501e+07u w=1.501e+07u
.ends

.subckt sky130_fd_sc_hd__clkbuf_4 A VGND VPWR X VNB VPB
X0 VPWR A a_27_47# VPB sky130_fd_pr__pfet_01v8_hvt ad=9.1e+11p pd=7.82e+06u as=2.65e+11p ps=2.53e+06u w=1e+06u l=150000u
X1 VGND a_27_47# X VNB sky130_fd_pr__nfet_01v8 ad=3.801e+11p pd=4.33e+06u as=2.352e+11p ps=2.8e+06u w=420000u l=150000u
X2 VGND a_27_47# X VNB sky130_fd_pr__nfet_01v8 ad=0p pd=0u as=0p ps=0u w=420000u l=150000u
X3 X a_27_47# VPWR VPB sky130_fd_pr__pfet_01v8_hvt ad=5.6e+11p pd=5.12e+06u as=0p ps=0u w=1e+06u l=150000u
X4 X a_27_47# VGND VNB sky130_fd_pr__nfet_01v8 ad=0p pd=0u as=0p ps=0u w=420000u l=150000u
X5 VGND A a_27_47# VNB sky130_fd_pr__nfet_01v8 ad=0p pd=0u as=1.113e+11p ps=1.37e+06u w=420000u l=150000u
X6 VPWR a_27_47# X VPB sky130_fd_pr__pfet_01v8_hvt ad=0p pd=0u as=0p ps=0u w=1e+06u l=150000u
X7 X a_27_47# VGND VNB sky130_fd_pr__nfet_01v8 ad=0p pd=0u as=0p ps=0u w=420000u l=150000u
X8 X a_27_47# VPWR VPB sky130_fd_pr__pfet_01v8_hvt ad=0p pd=0u as=0p ps=0u w=1e+06u l=150000u
X9 VPWR a_27_47# X VPB sky130_fd_pr__pfet_01v8_hvt ad=0p pd=0u as=0p ps=0u w=1e+06u l=150000u
.ends

.subckt sky130_fd_sc_hd__dfrbp_1 CLK D RESET_B VGND VPWR Q Q_N VNB VPB
X0 Q a_1283_21# VPWR VPB sky130_fd_pr__pfet_01v8_hvt ad=2.8e+11p pd=2.56e+06u as=1.5393e+12p ps=1.452e+07u w=1e+06u l=150000u
X1 a_1217_47# a_27_47# a_1108_47# VNB sky130_fd_pr__nfet_01v8 ad=1.338e+11p pd=1.5e+06u as=1.422e+11p ps=1.51e+06u w=360000u l=150000u
X2 a_805_47# a_761_289# a_639_47# VNB sky130_fd_pr__nfet_01v8 ad=8.82e+10p pd=1.26e+06u as=2.802e+11p ps=2.2e+06u w=420000u l=150000u
X3 VPWR a_1283_21# a_1847_47# VPB sky130_fd_pr__pfet_01v8_hvt ad=0p pd=0u as=1.664e+11p ps=1.8e+06u w=640000u l=150000u
X4 a_1108_47# a_193_47# a_761_289# VNB sky130_fd_pr__nfet_01v8 ad=0p pd=0u as=1.998e+11p ps=1.97e+06u w=360000u l=150000u
X5 a_1283_21# a_1108_47# a_1462_47# VNB sky130_fd_pr__nfet_01v8 ad=1.092e+11p pd=1.36e+06u as=1.281e+11p ps=1.45e+06u w=420000u l=150000u
X6 a_651_413# a_27_47# a_543_47# VPB sky130_fd_pr__pfet_01v8_hvt ad=3.402e+11p pd=3.3e+06u as=1.449e+11p ps=1.53e+06u w=420000u l=150000u
X7 VGND RESET_B a_805_47# VNB sky130_fd_pr__nfet_01v8 ad=1.2225e+12p pd=1.139e+07u as=0p ps=0u w=420000u l=150000u
X8 VPWR CLK a_27_47# VPB sky130_fd_pr__pfet_01v8_hvt ad=0p pd=0u as=1.664e+11p ps=1.8e+06u w=640000u l=150000u
X9 Q_N a_1847_47# VGND VNB sky130_fd_pr__nfet_01v8 ad=1.69e+11p pd=1.82e+06u as=0p ps=0u w=650000u l=150000u
X10 a_448_47# D VPWR VPB sky130_fd_pr__pfet_01v8_hvt ad=1.302e+11p pd=1.46e+06u as=0p ps=0u w=420000u l=150000u
X11 VGND a_1283_21# a_1847_47# VNB sky130_fd_pr__nfet_01v8 ad=0p pd=0u as=1.092e+11p ps=1.36e+06u w=420000u l=150000u
X12 a_761_289# a_543_47# VGND VNB sky130_fd_pr__nfet_01v8 ad=0p pd=0u as=0p ps=0u w=640000u l=150000u
X13 Q a_1283_21# VGND VNB sky130_fd_pr__nfet_01v8 ad=1.69e+11p pd=1.82e+06u as=0p ps=0u w=650000u l=150000u
X14 a_193_47# a_27_47# VGND VNB sky130_fd_pr__nfet_01v8 ad=1.092e+11p pd=1.36e+06u as=0p ps=0u w=420000u l=150000u
X15 a_1108_47# a_27_47# a_761_289# VPB sky130_fd_pr__pfet_01v8_hvt ad=1.176e+11p pd=1.4e+06u as=2.583e+11p ps=2.37e+06u w=420000u l=150000u
X16 a_543_47# a_27_47# a_448_47# VNB sky130_fd_pr__nfet_01v8 ad=1.188e+11p pd=1.38e+06u as=1.32e+11p ps=1.49e+06u w=360000u l=150000u
X17 a_1462_47# RESET_B VGND VNB sky130_fd_pr__nfet_01v8 ad=0p pd=0u as=0p ps=0u w=420000u l=150000u
X18 a_543_47# a_193_47# a_448_47# VPB sky130_fd_pr__pfet_01v8_hvt ad=0p pd=0u as=0p ps=0u w=420000u l=150000u
X19 a_448_47# D VGND VNB sky130_fd_pr__nfet_01v8 ad=0p pd=0u as=0p ps=0u w=420000u l=150000u
X20 VPWR a_1283_21# a_1270_413# VPB sky130_fd_pr__pfet_01v8_hvt ad=0p pd=0u as=1.134e+11p ps=1.38e+06u w=420000u l=150000u
X21 VPWR a_1108_47# a_1283_21# VPB sky130_fd_pr__pfet_01v8_hvt ad=0p pd=0u as=1.134e+11p ps=1.38e+06u w=420000u l=150000u
X22 a_1270_413# a_193_47# a_1108_47# VPB sky130_fd_pr__pfet_01v8_hvt ad=0p pd=0u as=0p ps=0u w=420000u l=150000u
X23 a_193_47# a_27_47# VPWR VPB sky130_fd_pr__pfet_01v8_hvt ad=1.664e+11p pd=1.8e+06u as=0p ps=0u w=640000u l=150000u
X24 a_1283_21# RESET_B VPWR VPB sky130_fd_pr__pfet_01v8_hvt ad=0p pd=0u as=0p ps=0u w=420000u l=150000u
X25 VPWR a_761_289# a_651_413# VPB sky130_fd_pr__pfet_01v8_hvt ad=0p pd=0u as=0p ps=0u w=420000u l=150000u
X26 a_639_47# a_193_47# a_543_47# VNB sky130_fd_pr__nfet_01v8 ad=0p pd=0u as=0p ps=0u w=360000u l=150000u
X27 Q_N a_1847_47# VPWR VPB sky130_fd_pr__pfet_01v8_hvt ad=2.6e+11p pd=2.52e+06u as=0p ps=0u w=1e+06u l=150000u
X28 VGND a_1283_21# a_1217_47# VNB sky130_fd_pr__nfet_01v8 ad=0p pd=0u as=0p ps=0u w=420000u l=150000u
X29 a_651_413# RESET_B VPWR VPB sky130_fd_pr__pfet_01v8_hvt ad=0p pd=0u as=0p ps=0u w=420000u l=150000u
X30 VGND CLK a_27_47# VNB sky130_fd_pr__nfet_01v8 ad=0p pd=0u as=1.092e+11p ps=1.36e+06u w=420000u l=150000u
X31 a_761_289# a_543_47# VPWR VPB sky130_fd_pr__pfet_01v8_hvt ad=0p pd=0u as=0p ps=0u w=840000u l=150000u
.ends

.subckt sky130_fd_sc_hd__clkinv_1 A VGND VPWR Y VNB VPB
X0 Y A VPWR VPB sky130_fd_pr__pfet_01v8_hvt ad=2.268e+11p pd=2.22e+06u as=4.536e+11p ps=4.44e+06u w=840000u l=150000u
X1 VGND A Y VNB sky130_fd_pr__nfet_01v8 ad=1.197e+11p pd=1.41e+06u as=1.092e+11p ps=1.36e+06u w=420000u l=150000u
X2 VPWR A Y VPB sky130_fd_pr__pfet_01v8_hvt ad=0p pd=0u as=0p ps=0u w=840000u l=150000u
.ends

.subckt quadgen clkin outa outb outc outd sky130_fd_sc_hd__tapvpwrvgnd_1_1/VGND vcc
+ gnd
Xsky130_fd_sc_hd__clkbuf_4_0 x10/Q_N gnd vcc outc gnd vcc sky130_fd_sc_hd__clkbuf_4
Xsky130_fd_sc_hd__clkbuf_4_1 x10/Q gnd vcc outd gnd vcc sky130_fd_sc_hd__clkbuf_4
Xsky130_fd_sc_hd__clkbuf_4_2 sky130_fd_sc_hd__clkbuf_4_2/A gnd vcc outb gnd vcc sky130_fd_sc_hd__clkbuf_4
Xsky130_fd_sc_hd__clkbuf_4_3 x10/D gnd vcc outa gnd vcc sky130_fd_sc_hd__clkbuf_4
Xsky130_fd_sc_hd__dfrbp_1_0 clkin x10/Q_N vcc gnd vcc x10/D sky130_fd_sc_hd__clkbuf_4_2/A
+ gnd vcc sky130_fd_sc_hd__dfrbp_1
Xx10 x33/Y x10/D vcc gnd vcc x10/Q x10/Q_N gnd vcc sky130_fd_sc_hd__dfrbp_1
Xx33 clkin gnd vcc x33/Y gnd vcc sky130_fd_sc_hd__clkinv_1
.ends

.subckt sky130_fd_pr__nfet_01v8_lvt_U9BGXT a_n108_n300# a_n50_n388# a_n210_n474# a_50_n300#
X0 a_50_n300# a_n50_n388# a_n108_n300# a_n210_n474# sky130_fd_pr__nfet_01v8_lvt ad=8.7e+11p pd=6.58e+06u as=8.7e+11p ps=6.58e+06u w=3e+06u l=500000u
.ends

.subckt sky130_fd_sc_hd__or4bb_1 A B C_N D_N VGND VPWR X VNB VPB
X0 VGND A a_311_413# VNB sky130_fd_pr__nfet_01v8 ad=5.5025e+11p pd=6.15e+06u as=2.331e+11p ps=2.79e+06u w=420000u l=150000u
X1 VPWR A a_561_297# VPB sky130_fd_pr__pfet_01v8_hvt ad=5.41725e+11p pd=5.32e+06u as=1.197e+11p ps=1.41e+06u w=420000u l=150000u
X2 a_393_413# a_205_93# a_311_413# VPB sky130_fd_pr__pfet_01v8_hvt ad=2.43e+11p pd=2.66e+06u as=1.092e+11p ps=1.36e+06u w=420000u l=150000u
X3 VGND C_N a_27_410# VNB sky130_fd_pr__nfet_01v8 ad=0p pd=0u as=1.092e+11p ps=1.36e+06u w=420000u l=150000u
X4 VPWR C_N a_27_410# VPB sky130_fd_pr__pfet_01v8_hvt ad=0p pd=0u as=1.092e+11p ps=1.36e+06u w=420000u l=150000u
X5 X a_311_413# VPWR VPB sky130_fd_pr__pfet_01v8_hvt ad=2.75e+11p pd=2.55e+06u as=0p ps=0u w=1e+06u l=150000u
X6 VGND a_27_410# a_311_413# VNB sky130_fd_pr__nfet_01v8 ad=0p pd=0u as=0p ps=0u w=420000u l=150000u
X7 a_561_297# B a_489_297# VPB sky130_fd_pr__pfet_01v8_hvt ad=0p pd=0u as=8.82e+10p ps=1.26e+06u w=420000u l=150000u
X8 a_205_93# D_N VGND VNB sky130_fd_pr__nfet_01v8 ad=1.092e+11p pd=1.36e+06u as=0p ps=0u w=420000u l=150000u
X9 a_205_93# D_N VPWR VPB sky130_fd_pr__pfet_01v8_hvt ad=1.176e+11p pd=1.4e+06u as=0p ps=0u w=420000u l=150000u
X10 a_489_297# a_27_410# a_393_413# VPB sky130_fd_pr__pfet_01v8_hvt ad=0p pd=0u as=0p ps=0u w=420000u l=150000u
X11 a_311_413# B VGND VNB sky130_fd_pr__nfet_01v8 ad=0p pd=0u as=0p ps=0u w=420000u l=150000u
X12 a_311_413# a_205_93# VGND VNB sky130_fd_pr__nfet_01v8 ad=0p pd=0u as=0p ps=0u w=420000u l=150000u
X13 X a_311_413# VGND VNB sky130_fd_pr__nfet_01v8 ad=1.7875e+11p pd=1.85e+06u as=0p ps=0u w=650000u l=150000u
.ends

.subckt clkdiv input output sky130_fd_sc_hd__tapvpwrvgnd_1_4/VPWR sky130_fd_sc_hd__tapvpwrvgnd_1_1/VPWR
+ x6/D x7/D sky130_fd_sc_hd__tapvpwrvgnd_1_2/VPWR vcc x5/D gnd
Xx5 input x5/D x7/RESET_B gnd vcc x5/Q x5/D gnd vcc sky130_fd_sc_hd__dfrbp_1
Xx6 x5/Q x6/D x7/RESET_B gnd vcc x6/Q x6/D gnd vcc sky130_fd_sc_hd__dfrbp_1
Xx7 x6/Q x7/D x7/RESET_B gnd vcc x7/Q x7/D gnd vcc sky130_fd_sc_hd__dfrbp_1
Xsky130_fd_sc_hd__or4bb_1_0 x5/D x6/D output x7/D gnd vcc x7/RESET_B gnd vcc sky130_fd_sc_hd__or4bb_1
Xsky130_fd_sc_hd__dfrbp_1_0 x7/Q output x7/RESET_B gnd vcc sky130_fd_sc_hd__dfrbp_1_0/Q
+ output gnd vcc sky130_fd_sc_hd__dfrbp_1
.ends

.subckt sky130_fd_pr__res_xhigh_po_5p73_WAQYE6 a_n573_516# a_n703_n1078# a_n573_n948#
X0 a_n573_n948# a_n573_516# a_n703_n1078# sky130_fd_pr__res_xhigh_po_5p73 l=5.16e+06u
.ends

.subckt sky130_fd_sc_hd__bufbuf_8 A VGND VPWR X VNB VPB
X0 a_318_47# a_206_47# VPWR VPB sky130_fd_pr__pfet_01v8_hvt ad=5.3e+11p pd=5.06e+06u as=1.918e+12p ps=1.789e+07u w=1e+06u l=150000u
X1 VPWR a_318_47# X VPB sky130_fd_pr__pfet_01v8_hvt ad=0p pd=0u as=1.08e+12p ps=1.016e+07u w=1e+06u l=150000u
X2 VPWR a_206_47# a_318_47# VPB sky130_fd_pr__pfet_01v8_hvt ad=0p pd=0u as=0p ps=0u w=1e+06u l=150000u
X3 X a_318_47# VGND VNB sky130_fd_pr__nfet_01v8 ad=7.02e+11p pd=7.36e+06u as=1.247e+12p ps=1.299e+07u w=650000u l=150000u
X4 X a_318_47# VPWR VPB sky130_fd_pr__pfet_01v8_hvt ad=0p pd=0u as=0p ps=0u w=1e+06u l=150000u
X5 VPWR a_318_47# X VPB sky130_fd_pr__pfet_01v8_hvt ad=0p pd=0u as=0p ps=0u w=1e+06u l=150000u
X6 X a_318_47# VPWR VPB sky130_fd_pr__pfet_01v8_hvt ad=0p pd=0u as=0p ps=0u w=1e+06u l=150000u
X7 VGND a_206_47# a_318_47# VNB sky130_fd_pr__nfet_01v8 ad=0p pd=0u as=3.445e+11p ps=3.66e+06u w=650000u l=150000u
X8 VPWR a_318_47# X VPB sky130_fd_pr__pfet_01v8_hvt ad=0p pd=0u as=0p ps=0u w=1e+06u l=150000u
X9 X a_318_47# VPWR VPB sky130_fd_pr__pfet_01v8_hvt ad=0p pd=0u as=0p ps=0u w=1e+06u l=150000u
X10 a_318_47# a_206_47# VGND VNB sky130_fd_pr__nfet_01v8 ad=0p pd=0u as=0p ps=0u w=650000u l=150000u
X11 X a_318_47# VGND VNB sky130_fd_pr__nfet_01v8 ad=0p pd=0u as=0p ps=0u w=650000u l=150000u
X12 a_206_47# a_27_47# VGND VNB sky130_fd_pr__nfet_01v8 ad=1.69e+11p pd=1.82e+06u as=0p ps=0u w=650000u l=150000u
X13 X a_318_47# VGND VNB sky130_fd_pr__nfet_01v8 ad=0p pd=0u as=0p ps=0u w=650000u l=150000u
X14 a_206_47# a_27_47# VPWR VPB sky130_fd_pr__pfet_01v8_hvt ad=2.6e+11p pd=2.52e+06u as=0p ps=0u w=1e+06u l=150000u
X15 VPWR a_318_47# X VPB sky130_fd_pr__pfet_01v8_hvt ad=0p pd=0u as=0p ps=0u w=1e+06u l=150000u
X16 VGND a_206_47# a_318_47# VNB sky130_fd_pr__nfet_01v8 ad=0p pd=0u as=0p ps=0u w=650000u l=150000u
X17 VGND a_318_47# X VNB sky130_fd_pr__nfet_01v8 ad=0p pd=0u as=0p ps=0u w=650000u l=150000u
X18 VGND a_318_47# X VNB sky130_fd_pr__nfet_01v8 ad=0p pd=0u as=0p ps=0u w=650000u l=150000u
X19 VGND a_318_47# X VNB sky130_fd_pr__nfet_01v8 ad=0p pd=0u as=0p ps=0u w=650000u l=150000u
X20 X a_318_47# VPWR VPB sky130_fd_pr__pfet_01v8_hvt ad=0p pd=0u as=0p ps=0u w=1e+06u l=150000u
X21 VGND a_318_47# X VNB sky130_fd_pr__nfet_01v8 ad=0p pd=0u as=0p ps=0u w=650000u l=150000u
X22 VPWR a_206_47# a_318_47# VPB sky130_fd_pr__pfet_01v8_hvt ad=0p pd=0u as=0p ps=0u w=1e+06u l=150000u
X23 VPWR A a_27_47# VPB sky130_fd_pr__pfet_01v8_hvt ad=0p pd=0u as=1.664e+11p ps=1.8e+06u w=640000u l=150000u
X24 VGND A a_27_47# VNB sky130_fd_pr__nfet_01v8 ad=0p pd=0u as=1.092e+11p ps=1.36e+06u w=420000u l=150000u
X25 X a_318_47# VGND VNB sky130_fd_pr__nfet_01v8 ad=0p pd=0u as=0p ps=0u w=650000u l=150000u
.ends

.subckt sky130_fd_sc_hd__clkdlybuf4s50_1 A VGND VPWR X VNB VPB
X0 a_283_47# a_27_47# VPWR VPB sky130_fd_pr__pfet_01v8_hvt ad=2.173e+11p pd=2.17e+06u as=6.517e+11p ps=5.37e+06u w=820000u l=500000u
X1 VPWR A a_27_47# VPB sky130_fd_pr__pfet_01v8_hvt ad=0p pd=0u as=2.7e+11p ps=2.54e+06u w=1e+06u l=150000u
X2 VPWR a_283_47# a_390_47# VPB sky130_fd_pr__pfet_01v8_hvt ad=0p pd=0u as=2.173e+11p ps=2.17e+06u w=820000u l=500000u
X3 VGND a_283_47# a_390_47# VNB sky130_fd_pr__nfet_01v8 ad=4.027e+11p pd=3.97e+06u as=1.7225e+11p ps=1.83e+06u w=650000u l=500000u
X4 X a_390_47# VPWR VPB sky130_fd_pr__pfet_01v8_hvt ad=3.55e+11p pd=2.71e+06u as=0p ps=0u w=1e+06u l=150000u
X5 VGND A a_27_47# VNB sky130_fd_pr__nfet_01v8 ad=0p pd=0u as=1.134e+11p ps=1.38e+06u w=420000u l=150000u
X6 a_283_47# a_27_47# VGND VNB sky130_fd_pr__nfet_01v8 ad=1.69e+11p pd=1.82e+06u as=0p ps=0u w=650000u l=500000u
X7 X a_390_47# VGND VNB sky130_fd_pr__nfet_01v8 ad=1.491e+11p pd=1.55e+06u as=0p ps=0u w=420000u l=150000u
.ends

.subckt sky130_fd_pr__pfet_01v8_QP79FH a_n74_n1000# w_n212_n1219# a_n33_n1097# a_16_n1000#
X0 a_16_n1000# a_n33_n1097# a_n74_n1000# w_n212_n1219# sky130_fd_pr__pfet_01v8 ad=2.9e+12p pd=2.058e+07u as=2.9e+12p ps=2.058e+07u w=1e+07u l=160000u
.ends

.subckt sky130_fd_pr__nfet_01v8_A5ES5P a_n73_n1000# a_15_n1000# a_n33_n1088# a_n175_n1174#
X0 a_15_n1000# a_n33_n1088# a_n73_n1000# a_n175_n1174# sky130_fd_pr__nfet_01v8 ad=2.9e+12p pd=2.058e+07u as=2.9e+12p ps=2.058e+07u w=1e+07u l=150000u
.ends

.subckt sky130_fd_sc_hd__nand2_1 A B VGND VPWR Y VNB VPB
X0 VPWR A Y VPB sky130_fd_pr__pfet_01v8_hvt ad=5.2e+11p pd=5.04e+06u as=2.7e+11p ps=2.54e+06u w=1e+06u l=150000u
X1 Y A a_113_47# VNB sky130_fd_pr__nfet_01v8 ad=1.69e+11p pd=1.82e+06u as=1.755e+11p ps=1.84e+06u w=650000u l=150000u
X2 a_113_47# B VGND VNB sky130_fd_pr__nfet_01v8 ad=0p pd=0u as=1.69e+11p ps=1.82e+06u w=650000u l=150000u
X3 Y B VPWR VPB sky130_fd_pr__pfet_01v8_hvt ad=0p pd=0u as=0p ps=0u w=1e+06u l=150000u
.ends

.subckt phasecmp a b out sky130_fd_sc_hd__tapvpwrvgnd_1_1/VPWR sky130_fd_sc_hd__tapvpwrvgnd_1_2/VGND
+ VSUBS vcc
XXR17 out VSUBS m1_5220_n910# sky130_fd_pr__res_xhigh_po_5p73_WAQYE6
Xx30 x39/B VSUBS vcc x30/X VSUBS vcc sky130_fd_sc_hd__bufbuf_8
Xx31 x39/Y VSUBS vcc x31/X VSUBS vcc sky130_fd_sc_hd__clkdlybuf4s50_1
XXM108 m1_5220_n910# vcc x162/X vcc sky130_fd_pr__pfet_01v8_QP79FH
XXM109 m1_5220_n910# VSUBS x30/X VSUBS sky130_fd_pr__nfet_01v8_A5ES5P
Xx28 b x31/X x31/X VSUBS vcc x39/B x28/Q_N VSUBS vcc sky130_fd_sc_hd__dfrbp_1
Xx39 x39/A x39/B VSUBS vcc x39/Y VSUBS vcc sky130_fd_sc_hd__nand2_1
Xx29 a x31/X x31/X VSUBS vcc x39/A x162/A VSUBS vcc sky130_fd_sc_hd__dfrbp_1
Xx162 x162/A VSUBS vcc x162/X VSUBS vcc sky130_fd_sc_hd__bufbuf_8
.ends

.subckt sky130_fd_pr__res_xhigh_po_0p35_LU79P3 a_n35_n1303# a_n35_871# a_n165_n1433#
X0 a_n35_n1303# a_n35_871# a_n165_n1433# sky130_fd_pr__res_xhigh_po_0p35 l=8.71e+06u
.ends

.subckt sky130_fd_pr__cap_mim_m3_1_PUMBUM m3_n6492_n12520# c1_n6452_n12480# c1_n13064_n12480#
+ m3_6732_n12520# c1_160_n12480# m3_120_n12520# m3_n13104_n12520# c1_6772_n12480#
X0 c1_n6452_n12480# m3_n6492_n12520# sky130_fd_pr__cap_mim_m3_1 l=3e+07u w=3e+07u
X1 c1_n13064_n12480# m3_n13104_n12520# sky130_fd_pr__cap_mim_m3_1 l=3e+07u w=3e+07u
X2 c1_6772_n12480# m3_6732_n12520# sky130_fd_pr__cap_mim_m3_1 l=3e+07u w=3e+07u
X3 c1_n13064_n12480# m3_n13104_n12520# sky130_fd_pr__cap_mim_m3_1 l=3e+07u w=3e+07u
X4 c1_n6452_n12480# m3_n6492_n12520# sky130_fd_pr__cap_mim_m3_1 l=3e+07u w=3e+07u
X5 c1_6772_n12480# m3_6732_n12520# sky130_fd_pr__cap_mim_m3_1 l=3e+07u w=3e+07u
X6 c1_n13064_n12480# m3_n13104_n12520# sky130_fd_pr__cap_mim_m3_1 l=3e+07u w=3e+07u
X7 c1_160_n12480# m3_120_n12520# sky130_fd_pr__cap_mim_m3_1 l=3e+07u w=3e+07u
X8 c1_6772_n12480# m3_6732_n12520# sky130_fd_pr__cap_mim_m3_1 l=3e+07u w=3e+07u
X9 c1_160_n12480# m3_120_n12520# sky130_fd_pr__cap_mim_m3_1 l=3e+07u w=3e+07u
X10 c1_160_n12480# m3_120_n12520# sky130_fd_pr__cap_mim_m3_1 l=3e+07u w=3e+07u
X11 c1_n6452_n12480# m3_n6492_n12520# sky130_fd_pr__cap_mim_m3_1 l=3e+07u w=3e+07u
X12 c1_n13064_n12480# m3_n13104_n12520# sky130_fd_pr__cap_mim_m3_1 l=3e+07u w=3e+07u
X13 c1_160_n12480# m3_120_n12520# sky130_fd_pr__cap_mim_m3_1 l=3e+07u w=3e+07u
X14 c1_6772_n12480# m3_6732_n12520# sky130_fd_pr__cap_mim_m3_1 l=3e+07u w=3e+07u
X15 c1_n6452_n12480# m3_n6492_n12520# sky130_fd_pr__cap_mim_m3_1 l=3e+07u w=3e+07u
.ends

.subckt sky130_fd_pr__nfet_01v8_lvt_JDBWNB a_n108_n1000# a_50_n1000# a_n210_n1174#
+ a_n50_n1088#
X0 a_50_n1000# a_n50_n1088# a_n108_n1000# a_n210_n1174# sky130_fd_pr__nfet_01v8_lvt ad=2.9e+12p pd=2.058e+07u as=2.9e+12p ps=2.058e+07u w=1e+07u l=500000u
.ends

.subckt sky130_fd_pr__cap_mim_m3_1_R8KP6D c1_n5414_n5122# c1_160_n5122# m3_n5454_n5162#
+ m3_120_n5162#
X0 c1_160_n5122# m3_120_n5162# sky130_fd_pr__cap_mim_m3_1 l=2.481e+07u w=2.481e+07u
X1 c1_n5414_n5122# m3_n5454_n5162# sky130_fd_pr__cap_mim_m3_1 l=2.481e+07u w=2.481e+07u
X2 c1_n5414_n5122# m3_n5454_n5162# sky130_fd_pr__cap_mim_m3_1 l=2.481e+07u w=2.481e+07u
X3 c1_160_n5122# m3_120_n5162# sky130_fd_pr__cap_mim_m3_1 l=2.481e+07u w=2.481e+07u
.ends

.subckt sky130_fd_pr__res_xhigh_po_0p35_G3F5X4 a_n35_3000# a_n165_n3562# a_n35_n3432#
X0 a_n35_n3432# a_n35_3000# a_n165_n3562# sky130_fd_pr__res_xhigh_po_0p35 l=3e+07u
.ends

.subckt sky130_fd_pr__res_xhigh_po_5p73_P7BAXV a_n573_n1433# a_n703_n1563# a_n573_1001#
X0 a_n573_n1433# a_n573_1001# a_n703_n1563# sky130_fd_pr__res_xhigh_po_5p73 l=1.001e+07u
.ends

.subckt sky130_fd_pr__pfet_01v8_lvt_TDASS5 a_n50_n597# a_50_n500# a_n108_n500# w_n246_n719#
X0 a_50_n500# a_n50_n597# a_n108_n500# w_n246_n719# sky130_fd_pr__pfet_01v8_lvt ad=1.45e+12p pd=1.058e+07u as=1.45e+12p ps=1.058e+07u w=5e+06u l=500000u
.ends

.subckt sky130_fd_pr__pfet_01v8_lvt_X3MKZ5 a_n108_n1000# w_n246_n1219# a_n50_n1097#
+ a_50_n1000#
X0 a_50_n1000# a_n50_n1097# a_n108_n1000# w_n246_n1219# sky130_fd_pr__pfet_01v8_lvt ad=2.9e+12p pd=2.058e+07u as=2.9e+12p ps=2.058e+07u w=1e+07u l=500000u
.ends

.subckt sky130_fd_pr__nfet_01v8_lvt_MYKW3H a_n50_n5988# a_n108_n5900# a_n210_n6074#
+ a_50_n5900#
X0 a_50_n5900# a_n50_n5988# a_n108_n5900# a_n210_n6074# sky130_fd_pr__nfet_01v8_lvt ad=1.711e+13p pd=1.1858e+08u as=1.711e+13p ps=1.1858e+08u w=5.9e+07u l=500000u
.ends

.subckt sky130_fd_pr__pfet_01v8_lvt_XP5BXZ a_n109_n300# w_n247_n519# a_n51_n397# a_51_n300#
X0 a_51_n300# a_n51_n397# a_n109_n300# w_n247_n519# sky130_fd_pr__pfet_01v8_lvt ad=8.7e+11p pd=6.58e+06u as=8.7e+11p ps=6.58e+06u w=3e+06u l=510000u
.ends

.subckt sky130_fd_pr__res_xhigh_po_0p69_FR2N8V a_n68_1040# a_n198_n1602# a_n68_n1472#
X0 a_n68_n1472# a_n68_1040# a_n198_n1602# sky130_fd_pr__res_xhigh_po_0p69 l=1.04e+07u
.ends

.subckt sky130_fd_pr__res_high_po_2p85_HV4VUF a_n284_1000# a_n284_n1432# a_n414_n1562#
X0 a_n284_n1432# a_n284_1000# a_n414_n1562# sky130_fd_pr__res_high_po_2p85 l=1e+07u
.ends

.subckt sky130_fd_pr__cap_mim_m3_1_KYM84V m3_n886_n740# c1_n846_n700#
X0 c1_n846_n700# m3_n886_n740# sky130_fd_pr__cap_mim_m3_1 l=7e+06u w=7e+06u
.ends

.subckt sky130_fd_pr__nfet_01v8_lvt_8TEW3F a_50_n500# a_n108_n500# a_n50_n588# a_n210_n674#
X0 a_50_n500# a_n50_n588# a_n108_n500# a_n210_n674# sky130_fd_pr__nfet_01v8_lvt ad=1.45e+12p pd=1.058e+07u as=1.45e+12p ps=1.058e+07u w=5e+06u l=500000u
.ends

.subckt sky130_fd_pr__pfet_01v8_lvt_X3MVBA a_n108_n5000# w_n246_n5219# a_n50_n5097#
+ a_50_n5000#
X0 a_50_n5000# a_n50_n5097# a_n108_n5000# w_n246_n5219# sky130_fd_pr__pfet_01v8_lvt ad=1.45e+13p pd=1.0058e+08u as=1.45e+13p ps=1.0058e+08u w=5e+07u l=500000u
.ends

.subckt opamp vcc inv noninv output gnd
XXM56 m1_n2590_4110# vcc m1_n540_4980# vcc sky130_fd_pr__pfet_01v8_lvt_X3MKZ5
XXM57 li_1325_1915# output gnd gnd sky130_fd_pr__nfet_01v8_lvt_MYKW3H
XXM59 m1_n2580_3900# vcc m1_n540_3980# m1_n2590_4110# sky130_fd_pr__pfet_01v8_lvt_X3MKZ5
Xsky130_fd_pr__pfet_01v8_lvt_XP5BXZ_0 m1_n540_3980# vcc m1_n540_3980# m1_n540_4980#
+ sky130_fd_pr__pfet_01v8_lvt_XP5BXZ
Xsky130_fd_pr__pfet_01v8_lvt_XP5BXZ_1 m1_n2580_3900# vcc noninv li_1325_1915# sky130_fd_pr__pfet_01v8_lvt_XP5BXZ
XXR17 m1_n540_3980# gnd gnd sky130_fd_pr__res_xhigh_po_0p69_FR2N8V
XXR18 li_1325_1915# m1_3740_2320# gnd sky130_fd_pr__res_high_po_2p85_HV4VUF
XXC6 m1_3740_2320# output sky130_fd_pr__cap_mim_m3_1_KYM84V
XXM60 gnd m1_n2710_330# m1_n2710_330# gnd sky130_fd_pr__nfet_01v8_lvt_8TEW3F
XXM61 li_1325_1915# gnd m1_n2710_330# gnd sky130_fd_pr__nfet_01v8_lvt_8TEW3F
XXM62 vcc vcc m1_n540_4980# m1_1210_4110# sky130_fd_pr__pfet_01v8_lvt_X3MVBA
XXM63 m1_1210_4110# vcc m1_n540_3980# output sky130_fd_pr__pfet_01v8_lvt_X3MVBA
XXM53 m1_n540_4980# vcc m1_n540_4980# vcc sky130_fd_pr__pfet_01v8_lvt_XP5BXZ
XXM54 m1_n2710_330# vcc inv m1_n2580_3900# sky130_fd_pr__pfet_01v8_lvt_XP5BXZ
.ends

.subckt sky130_fd_pr__cap_mim_m3_1_TE3E2R c1_n1547_n1401# m3_n1587_n1441#
X0 c1_n1547_n1401# m3_n1587_n1441# sky130_fd_pr__cap_mim_m3_1 l=1.401e+07u w=1.401e+07u
.ends

.subckt sky130_fd_pr__res_xhigh_po_0p69_LVNRZ4 a_n68_690# a_n198_n1252# a_n68_n1122#
X0 a_n68_n1122# a_n68_690# a_n198_n1252# sky130_fd_pr__res_xhigh_po_0p69 l=6.9e+06u
.ends

.subckt sky130_fd_pr__res_xhigh_po_0p35_4XRDQ9 a_n165_n1462# a_n35_900# a_n35_n1332#
X0 a_n35_n1332# a_n35_900# a_n165_n1462# sky130_fd_pr__res_xhigh_po_0p35 l=9e+06u
.ends

.subckt sky130_fd_pr__pfet_01v8_lvt_8R53B2 w_n247_n1219# a_n51_n1097# a_51_n1000#
+ a_n109_n1000#
X0 a_51_n1000# a_n51_n1097# a_n109_n1000# w_n247_n1219# sky130_fd_pr__pfet_01v8_lvt ad=2.9e+12p pd=2.058e+07u as=2.9e+12p ps=2.058e+07u w=1e+07u l=510000u
.ends

.subckt sky130_fd_pr__res_xhigh_po_2p85_QPY2BD a_n284_950# a_n284_n1382# a_n414_n1512#
X0 a_n284_n1382# a_n284_950# a_n414_n1512# sky130_fd_pr__res_xhigh_po_2p85 l=9.5e+06u
.ends

.subckt sky130_fd_pr__cap_mim_m3_1_NUYDZ7 c1_n3046_n9020# m3_n3086_n9060#
X0 c1_n3046_n9020# m3_n3086_n9060# sky130_fd_pr__cap_mim_m3_1 l=2.9e+07u w=2.9e+07u
X1 c1_n3046_n9020# m3_n3086_n9060# sky130_fd_pr__cap_mim_m3_1 l=2.9e+07u w=2.9e+07u
X2 c1_n3046_n9020# m3_n3086_n9060# sky130_fd_pr__cap_mim_m3_1 l=2.9e+07u w=2.9e+07u
.ends

.subckt sky130_fd_pr__cap_mim_m3_1_4BCNTW c1_n2146_n6160# m3_n2186_n6200#
X0 c1_n2146_n6160# m3_n2186_n6200# sky130_fd_pr__cap_mim_m3_1 l=3e+07u w=2e+07u
X1 c1_n2146_n6160# m3_n2186_n6200# sky130_fd_pr__cap_mim_m3_1 l=3e+07u w=2e+07u
.ends

.subckt filter vcc input out pb gnd
Xsky130_fd_pr__cap_mim_m3_1_TE3E2R_0 m1_19330_n37886# gnd sky130_fd_pr__cap_mim_m3_1_TE3E2R
XXR23 m1_20970_n34050# gnd m1_19330_n37886# sky130_fd_pr__res_xhigh_po_0p69_LVNRZ4
Xsky130_fd_pr__res_xhigh_po_0p35_4XRDQ9_0 gnd m1_21449_n33397# m1_20970_n34050# sky130_fd_pr__res_xhigh_po_0p35_4XRDQ9
Xsky130_fd_pr__pfet_01v8_lvt_8R53B2_0 vcc pb out vcc sky130_fd_pr__pfet_01v8_lvt_8R53B2
XXR7 m1_21449_n33397# input gnd sky130_fd_pr__res_xhigh_po_2p85_QPY2BD
XXC27 m1_21449_n33397# gnd sky130_fd_pr__cap_mim_m3_1_NUYDZ7
XXC4 out m1_20970_n34050# sky130_fd_pr__cap_mim_m3_1_4BCNTW
Xsky130_fd_pr__pfet_01v8_lvt_X3MKZ5_0 vcc m1_19330_n37886# gnd out sky130_fd_pr__pfet_01v8_lvt_8R53B2
.ends

.subckt sky130_fd_sc_hd__clkbuf_16 A VGND VPWR X VNB VPB
X0 VPWR A a_110_47# VPB sky130_fd_pr__pfet_01v8_hvt ad=3.045e+12p pd=2.809e+07u as=5.6e+11p ps=5.12e+06u w=1e+06u l=150000u
X1 VPWR a_110_47# X VPB sky130_fd_pr__pfet_01v8_hvt ad=0p pd=0u as=2.24e+12p ps=2.048e+07u w=1e+06u l=150000u
X2 X a_110_47# VPWR VPB sky130_fd_pr__pfet_01v8_hvt ad=0p pd=0u as=0p ps=0u w=1e+06u l=150000u
X3 X a_110_47# VPWR VPB sky130_fd_pr__pfet_01v8_hvt ad=0p pd=0u as=0p ps=0u w=1e+06u l=150000u
X4 VPWR a_110_47# X VPB sky130_fd_pr__pfet_01v8_hvt ad=0p pd=0u as=0p ps=0u w=1e+06u l=150000u
X5 VPWR a_110_47# X VPB sky130_fd_pr__pfet_01v8_hvt ad=0p pd=0u as=0p ps=0u w=1e+06u l=150000u
X6 a_110_47# A VPWR VPB sky130_fd_pr__pfet_01v8_hvt ad=0p pd=0u as=0p ps=0u w=1e+06u l=150000u
X7 a_110_47# A VGND VNB sky130_fd_pr__nfet_01v8 ad=2.352e+11p pd=2.8e+06u as=1.2789e+12p ps=1.533e+07u w=420000u l=150000u
X8 VGND a_110_47# X VNB sky130_fd_pr__nfet_01v8 ad=0p pd=0u as=9.408e+11p ps=1.12e+07u w=420000u l=150000u
X9 X a_110_47# VGND VNB sky130_fd_pr__nfet_01v8 ad=0p pd=0u as=0p ps=0u w=420000u l=150000u
X10 VGND a_110_47# X VNB sky130_fd_pr__nfet_01v8 ad=0p pd=0u as=0p ps=0u w=420000u l=150000u
X11 a_110_47# A VPWR VPB sky130_fd_pr__pfet_01v8_hvt ad=0p pd=0u as=0p ps=0u w=1e+06u l=150000u
X12 VGND A a_110_47# VNB sky130_fd_pr__nfet_01v8 ad=0p pd=0u as=0p ps=0u w=420000u l=150000u
X13 VGND a_110_47# X VNB sky130_fd_pr__nfet_01v8 ad=0p pd=0u as=0p ps=0u w=420000u l=150000u
X14 VPWR a_110_47# X VPB sky130_fd_pr__pfet_01v8_hvt ad=0p pd=0u as=0p ps=0u w=1e+06u l=150000u
X15 X a_110_47# VPWR VPB sky130_fd_pr__pfet_01v8_hvt ad=0p pd=0u as=0p ps=0u w=1e+06u l=150000u
X16 VGND A a_110_47# VNB sky130_fd_pr__nfet_01v8 ad=0p pd=0u as=0p ps=0u w=420000u l=150000u
X17 VGND a_110_47# X VNB sky130_fd_pr__nfet_01v8 ad=0p pd=0u as=0p ps=0u w=420000u l=150000u
X18 VPWR a_110_47# X VPB sky130_fd_pr__pfet_01v8_hvt ad=0p pd=0u as=0p ps=0u w=1e+06u l=150000u
X19 VGND a_110_47# X VNB sky130_fd_pr__nfet_01v8 ad=0p pd=0u as=0p ps=0u w=420000u l=150000u
X20 X a_110_47# VPWR VPB sky130_fd_pr__pfet_01v8_hvt ad=0p pd=0u as=0p ps=0u w=1e+06u l=150000u
X21 a_110_47# A VGND VNB sky130_fd_pr__nfet_01v8 ad=0p pd=0u as=0p ps=0u w=420000u l=150000u
X22 VPWR A a_110_47# VPB sky130_fd_pr__pfet_01v8_hvt ad=0p pd=0u as=0p ps=0u w=1e+06u l=150000u
X23 VPWR a_110_47# X VPB sky130_fd_pr__pfet_01v8_hvt ad=0p pd=0u as=0p ps=0u w=1e+06u l=150000u
X24 VPWR a_110_47# X VPB sky130_fd_pr__pfet_01v8_hvt ad=0p pd=0u as=0p ps=0u w=1e+06u l=150000u
X25 VGND a_110_47# X VNB sky130_fd_pr__nfet_01v8 ad=0p pd=0u as=0p ps=0u w=420000u l=150000u
X26 X a_110_47# VPWR VPB sky130_fd_pr__pfet_01v8_hvt ad=0p pd=0u as=0p ps=0u w=1e+06u l=150000u
X27 VGND a_110_47# X VNB sky130_fd_pr__nfet_01v8 ad=0p pd=0u as=0p ps=0u w=420000u l=150000u
X28 VGND a_110_47# X VNB sky130_fd_pr__nfet_01v8 ad=0p pd=0u as=0p ps=0u w=420000u l=150000u
X29 X a_110_47# VGND VNB sky130_fd_pr__nfet_01v8 ad=0p pd=0u as=0p ps=0u w=420000u l=150000u
X30 X a_110_47# VPWR VPB sky130_fd_pr__pfet_01v8_hvt ad=0p pd=0u as=0p ps=0u w=1e+06u l=150000u
X31 X a_110_47# VPWR VPB sky130_fd_pr__pfet_01v8_hvt ad=0p pd=0u as=0p ps=0u w=1e+06u l=150000u
X32 X a_110_47# VGND VNB sky130_fd_pr__nfet_01v8 ad=0p pd=0u as=0p ps=0u w=420000u l=150000u
X33 VPWR a_110_47# X VPB sky130_fd_pr__pfet_01v8_hvt ad=0p pd=0u as=0p ps=0u w=1e+06u l=150000u
X34 X a_110_47# VPWR VPB sky130_fd_pr__pfet_01v8_hvt ad=0p pd=0u as=0p ps=0u w=1e+06u l=150000u
X35 X a_110_47# VGND VNB sky130_fd_pr__nfet_01v8 ad=0p pd=0u as=0p ps=0u w=420000u l=150000u
X36 X a_110_47# VGND VNB sky130_fd_pr__nfet_01v8 ad=0p pd=0u as=0p ps=0u w=420000u l=150000u
X37 X a_110_47# VGND VNB sky130_fd_pr__nfet_01v8 ad=0p pd=0u as=0p ps=0u w=420000u l=150000u
X38 X a_110_47# VGND VNB sky130_fd_pr__nfet_01v8 ad=0p pd=0u as=0p ps=0u w=420000u l=150000u
X39 X a_110_47# VGND VNB sky130_fd_pr__nfet_01v8 ad=0p pd=0u as=0p ps=0u w=420000u l=150000u
.ends

.subckt sky130_fd_pr__nfet_01v8_lvt_9DW9LC a_n74_n1000# a_16_n1000# a_n176_n1174#
+ a_n33_n1088#
X0 a_16_n1000# a_n33_n1088# a_n74_n1000# a_n176_n1174# sky130_fd_pr__nfet_01v8_lvt ad=2.9e+12p pd=2.058e+07u as=2.9e+12p ps=2.058e+07u w=1e+07u l=160000u
.ends

.subckt sky130_fd_pr__nfet_01v8_lvt_84HFGD a_16_n500# a_n176_n674# a_n74_n500# a_n33_n588#
X0 a_16_n500# a_n33_n588# a_n74_n500# a_n176_n674# sky130_fd_pr__nfet_01v8_lvt ad=1.45e+12p pd=1.058e+07u as=1.45e+12p ps=1.058e+07u w=5e+06u l=160000u
.ends

.subckt sky130_fd_pr__pfet_01v8_lvt_NK53LE w_n247_n619# a_n51_n497# a_51_n400# a_n109_n400#
X0 a_51_n400# a_n51_n497# a_n109_n400# w_n247_n619# sky130_fd_pr__pfet_01v8_lvt ad=1.16e+12p pd=8.58e+06u as=1.16e+12p ps=8.58e+06u w=4e+06u l=510000u
.ends

.subckt gilbert vcc LO+ LO- RF+ RF- IF+ IF- NB PB GND
XXM7 m1_n3965_n185# m1_n3365_n2785# GND RF+ sky130_fd_pr__nfet_01v8_lvt_9DW9LC
XXM9 m1_n1565_n185# GND IF+ LO- sky130_fd_pr__nfet_01v8_lvt_84HFGD
Xsky130_fd_pr__pfet_01v8_lvt_NK53LE_0 vcc PB vcc IF+ sky130_fd_pr__pfet_01v8_lvt_NK53LE
Xsky130_fd_pr__nfet_01v8_lvt_84HFGD_0 m1_n3965_n185# GND IF+ LO+ sky130_fd_pr__nfet_01v8_lvt_84HFGD
Xsky130_fd_pr__pfet_01v8_lvt_NK53LE_1 vcc PB IF- vcc sky130_fd_pr__pfet_01v8_lvt_NK53LE
Xsky130_fd_pr__nfet_01v8_lvt_84HFGD_1 GND GND m1_n3365_n2785# NB sky130_fd_pr__nfet_01v8_lvt_84HFGD
Xsky130_fd_pr__nfet_01v8_lvt_9DW9LC_0 m1_n3365_n2785# m1_n1565_n185# GND RF- sky130_fd_pr__nfet_01v8_lvt_9DW9LC
XXM10 IF- GND m1_n1565_n185# LO+ sky130_fd_pr__nfet_01v8_lvt_84HFGD