* SPICE3 file created from user_analog_project_wrapper_empty.ext - technology: sky130A

.subckt sky130_fd_pr__cap_mim_m3_1_LQCLLG m3_n6492_n12520# c1_n6452_n12480# c1_n13064_n12480#
+ m3_6732_n12520# c1_160_n12480# m3_120_n12520# m3_n13104_n12520# c1_6772_n12480#
+ VSUBS
X0 c1_n6452_n12480# m3_n6492_n12520# sky130_fd_pr__cap_mim_m3_1 l=3e+07u w=3e+07u
X1 c1_n13064_n12480# m3_n13104_n12520# sky130_fd_pr__cap_mim_m3_1 l=3e+07u w=3e+07u
X2 c1_6772_n12480# m3_6732_n12520# sky130_fd_pr__cap_mim_m3_1 l=3e+07u w=3e+07u
X3 c1_n13064_n12480# m3_n13104_n12520# sky130_fd_pr__cap_mim_m3_1 l=3e+07u w=3e+07u
X4 c1_n6452_n12480# m3_n6492_n12520# sky130_fd_pr__cap_mim_m3_1 l=3e+07u w=3e+07u
X5 c1_6772_n12480# m3_6732_n12520# sky130_fd_pr__cap_mim_m3_1 l=3e+07u w=3e+07u
X6 c1_n13064_n12480# m3_n13104_n12520# sky130_fd_pr__cap_mim_m3_1 l=3e+07u w=3e+07u
X7 c1_160_n12480# m3_120_n12520# sky130_fd_pr__cap_mim_m3_1 l=3e+07u w=3e+07u
X8 c1_6772_n12480# m3_6732_n12520# sky130_fd_pr__cap_mim_m3_1 l=3e+07u w=3e+07u
X9 c1_160_n12480# m3_120_n12520# sky130_fd_pr__cap_mim_m3_1 l=3e+07u w=3e+07u
X10 c1_160_n12480# m3_120_n12520# sky130_fd_pr__cap_mim_m3_1 l=3e+07u w=3e+07u
X11 c1_n6452_n12480# m3_n6492_n12520# sky130_fd_pr__cap_mim_m3_1 l=3e+07u w=3e+07u
X12 c1_n13064_n12480# m3_n13104_n12520# sky130_fd_pr__cap_mim_m3_1 l=3e+07u w=3e+07u
X13 c1_160_n12480# m3_120_n12520# sky130_fd_pr__cap_mim_m3_1 l=3e+07u w=3e+07u
X14 c1_6772_n12480# m3_6732_n12520# sky130_fd_pr__cap_mim_m3_1 l=3e+07u w=3e+07u
X15 c1_n6452_n12480# m3_n6492_n12520# sky130_fd_pr__cap_mim_m3_1 l=3e+07u w=3e+07u
C0 c1_6772_n12480# m3_120_n12520# 7.75fF
C1 m3_6732_n12520# c1_6772_n12480# 305.78fF
C2 c1_n6452_n12480# m3_n13104_n12520# 7.73fF
C3 m3_n6492_n12520# c1_n6452_n12480# 305.80fF
C4 c1_n13064_n12480# m3_n13104_n12520# 306.26fF
C5 m3_n6492_n12520# c1_160_n12480# 7.75fF
C6 c1_160_n12480# m3_120_n12520# 305.78fF
C7 m3_n6492_n12520# m3_n13104_n12520# 7.89fF
C8 m3_n6492_n12520# m3_120_n12520# 7.88fF
C9 m3_6732_n12520# m3_120_n12520# 7.88fF
C10 c1_6772_n12480# VSUBS 3.97fF
C11 c1_160_n12480# VSUBS 3.48fF
C12 c1_n6452_n12480# VSUBS 3.48fF
C13 c1_n13064_n12480# VSUBS 7.18fF
C14 m3_6732_n12520# VSUBS 63.38fF
C15 m3_120_n12520# VSUBS 55.44fF
C16 m3_n6492_n12520# VSUBS 55.44fF
C17 m3_n13104_n12520# VSUBS 59.26fF
.ends

.subckt sky130_fd_pr__pfet_01v8_lvt_X3K6Y6 a_n50_n296# a_50_n200# a_n108_n200# w_n246_n418#
+ VSUBS
X0 a_50_n200# a_n50_n296# a_n108_n200# w_n246_n418# sky130_fd_pr__pfet_01v8_lvt ad=5.8e+11p pd=4.58e+06u as=5.8e+11p ps=4.58e+06u w=2e+06u l=500000u
.ends

.subckt sky130_fd_pr__nfet_01v8_lvt_SMGWK2 a_n210_n574# a_50_n400# a_n108_n400# a_n50_n488#
X0 a_50_n400# a_n50_n488# a_n108_n400# a_n210_n574# sky130_fd_pr__nfet_01v8_lvt ad=1.16e+12p pd=8.58e+06u as=1.16e+12p ps=8.58e+06u w=4e+06u l=500000u
.ends

.subckt analogsub vdd Vplus voffset Vminus Nbias vout gnd
XXM110 m1_391_2121# vdd m1_391_2121# vdd gnd sky130_fd_pr__pfet_01v8_lvt_X3K6Y6
XXM111 m1_391_2121# vout vdd vdd gnd sky130_fd_pr__pfet_01v8_lvt_X3K6Y6
XXM112 gnd vout m1_0_490# Vminus sky130_fd_pr__nfet_01v8_lvt_SMGWK2
XXM113 gnd m1_0_490# m1_391_2121# Vplus sky130_fd_pr__nfet_01v8_lvt_SMGWK2
XXM114 gnd gnd m1_0_490# Nbias sky130_fd_pr__nfet_01v8_lvt_SMGWK2
XXM115 m1_n1210_2130# vdd vout vdd gnd sky130_fd_pr__pfet_01v8_lvt_X3K6Y6
XXM116 m1_n1210_2130# m1_n1210_2130# vdd vdd gnd sky130_fd_pr__pfet_01v8_lvt_X3K6Y6
XXM117 gnd m1_n1210_2130# m1_n1330_400# voffset sky130_fd_pr__nfet_01v8_lvt_SMGWK2
XXM118 gnd m1_n1330_400# vout vout sky130_fd_pr__nfet_01v8_lvt_SMGWK2
XXM119 gnd gnd m1_n1330_400# Nbias sky130_fd_pr__nfet_01v8_lvt_SMGWK2
C0 vdd 0 7.32fF
.ends

.subckt sky130_fd_pr__nfet_01v8_U9BGXT a_n108_n300# a_n50_n388# a_n210_n474# a_50_n300#
X0 a_50_n300# a_n50_n388# a_n108_n300# a_n210_n474# sky130_fd_pr__nfet_01v8 ad=8.7e+11p pd=6.58e+06u as=8.7e+11p ps=6.58e+06u w=3e+06u l=500000u
.ends

.subckt sky130_fd_pr__cap_mim_m3_1_LJ5JLG m3_n3186_n3040# c1_n3146_n3000# VSUBS
X0 c1_n3146_n3000# m3_n3186_n3040# sky130_fd_pr__cap_mim_m3_1 l=3e+07u w=3e+07u
C0 m3_n3186_n3040# c1_n3146_n3000# 75.75fF
C1 c1_n3146_n3000# VSUBS 3.19fF
C2 m3_n3186_n3040# VSUBS 18.23fF
.ends

.subckt sky130_fd_sc_hd__clkbuf_4 A VGND VPWR X VNB VPB
X0 VPWR A a_27_47# VPB sky130_fd_pr__pfet_01v8_hvt ad=9.1e+11p pd=7.82e+06u as=2.65e+11p ps=2.53e+06u w=1e+06u l=150000u
X1 VGND a_27_47# X VNB sky130_fd_pr__nfet_01v8 ad=3.801e+11p pd=4.33e+06u as=2.352e+11p ps=2.8e+06u w=420000u l=150000u
X2 VGND a_27_47# X VNB sky130_fd_pr__nfet_01v8 ad=0p pd=0u as=0p ps=0u w=420000u l=150000u
X3 X a_27_47# VPWR VPB sky130_fd_pr__pfet_01v8_hvt ad=5.6e+11p pd=5.12e+06u as=0p ps=0u w=1e+06u l=150000u
X4 X a_27_47# VGND VNB sky130_fd_pr__nfet_01v8 ad=0p pd=0u as=0p ps=0u w=420000u l=150000u
X5 VGND A a_27_47# VNB sky130_fd_pr__nfet_01v8 ad=0p pd=0u as=1.113e+11p ps=1.37e+06u w=420000u l=150000u
X6 VPWR a_27_47# X VPB sky130_fd_pr__pfet_01v8_hvt ad=0p pd=0u as=0p ps=0u w=1e+06u l=150000u
X7 X a_27_47# VGND VNB sky130_fd_pr__nfet_01v8 ad=0p pd=0u as=0p ps=0u w=420000u l=150000u
X8 X a_27_47# VPWR VPB sky130_fd_pr__pfet_01v8_hvt ad=0p pd=0u as=0p ps=0u w=1e+06u l=150000u
X9 VPWR a_27_47# X VPB sky130_fd_pr__pfet_01v8_hvt ad=0p pd=0u as=0p ps=0u w=1e+06u l=150000u
.ends

.subckt sky130_fd_sc_hd__dfrbp_1 CLK D RESET_B VGND VPWR Q Q_N VNB VPB
X0 Q a_1283_21# VPWR VPB sky130_fd_pr__pfet_01v8_hvt ad=2.8e+11p pd=2.56e+06u as=1.5393e+12p ps=1.452e+07u w=1e+06u l=150000u
X1 a_1217_47# a_27_47# a_1108_47# VNB sky130_fd_pr__nfet_01v8 ad=1.338e+11p pd=1.5e+06u as=1.422e+11p ps=1.51e+06u w=360000u l=150000u
X2 a_805_47# a_761_289# a_639_47# VNB sky130_fd_pr__nfet_01v8 ad=8.82e+10p pd=1.26e+06u as=2.802e+11p ps=2.2e+06u w=420000u l=150000u
X3 VPWR a_1283_21# a_1847_47# VPB sky130_fd_pr__pfet_01v8_hvt ad=0p pd=0u as=1.664e+11p ps=1.8e+06u w=640000u l=150000u
X4 a_1108_47# a_193_47# a_761_289# VNB sky130_fd_pr__nfet_01v8 ad=0p pd=0u as=1.998e+11p ps=1.97e+06u w=360000u l=150000u
X5 a_1283_21# a_1108_47# a_1462_47# VNB sky130_fd_pr__nfet_01v8 ad=1.092e+11p pd=1.36e+06u as=1.281e+11p ps=1.45e+06u w=420000u l=150000u
X6 a_651_413# a_27_47# a_543_47# VPB sky130_fd_pr__pfet_01v8_hvt ad=3.402e+11p pd=3.3e+06u as=1.449e+11p ps=1.53e+06u w=420000u l=150000u
X7 VGND RESET_B a_805_47# VNB sky130_fd_pr__nfet_01v8 ad=1.2225e+12p pd=1.139e+07u as=0p ps=0u w=420000u l=150000u
X8 VPWR CLK a_27_47# VPB sky130_fd_pr__pfet_01v8_hvt ad=0p pd=0u as=1.664e+11p ps=1.8e+06u w=640000u l=150000u
X9 Q_N a_1847_47# VGND VNB sky130_fd_pr__nfet_01v8 ad=1.69e+11p pd=1.82e+06u as=0p ps=0u w=650000u l=150000u
X10 a_448_47# D VPWR VPB sky130_fd_pr__pfet_01v8_hvt ad=1.302e+11p pd=1.46e+06u as=0p ps=0u w=420000u l=150000u
X11 VGND a_1283_21# a_1847_47# VNB sky130_fd_pr__nfet_01v8 ad=0p pd=0u as=1.092e+11p ps=1.36e+06u w=420000u l=150000u
X12 a_761_289# a_543_47# VGND VNB sky130_fd_pr__nfet_01v8 ad=0p pd=0u as=0p ps=0u w=640000u l=150000u
X13 Q a_1283_21# VGND VNB sky130_fd_pr__nfet_01v8 ad=1.69e+11p pd=1.82e+06u as=0p ps=0u w=650000u l=150000u
X14 a_193_47# a_27_47# VGND VNB sky130_fd_pr__nfet_01v8 ad=1.092e+11p pd=1.36e+06u as=0p ps=0u w=420000u l=150000u
X15 a_1108_47# a_27_47# a_761_289# VPB sky130_fd_pr__pfet_01v8_hvt ad=1.176e+11p pd=1.4e+06u as=2.583e+11p ps=2.37e+06u w=420000u l=150000u
X16 a_543_47# a_27_47# a_448_47# VNB sky130_fd_pr__nfet_01v8 ad=1.188e+11p pd=1.38e+06u as=1.32e+11p ps=1.49e+06u w=360000u l=150000u
X17 a_1462_47# RESET_B VGND VNB sky130_fd_pr__nfet_01v8 ad=0p pd=0u as=0p ps=0u w=420000u l=150000u
X18 a_543_47# a_193_47# a_448_47# VPB sky130_fd_pr__pfet_01v8_hvt ad=0p pd=0u as=0p ps=0u w=420000u l=150000u
X19 a_448_47# D VGND VNB sky130_fd_pr__nfet_01v8 ad=0p pd=0u as=0p ps=0u w=420000u l=150000u
X20 VPWR a_1283_21# a_1270_413# VPB sky130_fd_pr__pfet_01v8_hvt ad=0p pd=0u as=1.134e+11p ps=1.38e+06u w=420000u l=150000u
X21 VPWR a_1108_47# a_1283_21# VPB sky130_fd_pr__pfet_01v8_hvt ad=0p pd=0u as=1.134e+11p ps=1.38e+06u w=420000u l=150000u
X22 a_1270_413# a_193_47# a_1108_47# VPB sky130_fd_pr__pfet_01v8_hvt ad=0p pd=0u as=0p ps=0u w=420000u l=150000u
X23 a_193_47# a_27_47# VPWR VPB sky130_fd_pr__pfet_01v8_hvt ad=1.664e+11p pd=1.8e+06u as=0p ps=0u w=640000u l=150000u
X24 a_1283_21# RESET_B VPWR VPB sky130_fd_pr__pfet_01v8_hvt ad=0p pd=0u as=0p ps=0u w=420000u l=150000u
X25 VPWR a_761_289# a_651_413# VPB sky130_fd_pr__pfet_01v8_hvt ad=0p pd=0u as=0p ps=0u w=420000u l=150000u
X26 a_639_47# a_193_47# a_543_47# VNB sky130_fd_pr__nfet_01v8 ad=0p pd=0u as=0p ps=0u w=360000u l=150000u
X27 Q_N a_1847_47# VPWR VPB sky130_fd_pr__pfet_01v8_hvt ad=2.6e+11p pd=2.52e+06u as=0p ps=0u w=1e+06u l=150000u
X28 VGND a_1283_21# a_1217_47# VNB sky130_fd_pr__nfet_01v8 ad=0p pd=0u as=0p ps=0u w=420000u l=150000u
X29 a_651_413# RESET_B VPWR VPB sky130_fd_pr__pfet_01v8_hvt ad=0p pd=0u as=0p ps=0u w=420000u l=150000u
X30 VGND CLK a_27_47# VNB sky130_fd_pr__nfet_01v8 ad=0p pd=0u as=1.092e+11p ps=1.36e+06u w=420000u l=150000u
X31 a_761_289# a_543_47# VPWR VPB sky130_fd_pr__pfet_01v8_hvt ad=0p pd=0u as=0p ps=0u w=840000u l=150000u
C0 VPB VNB 2.11fF
.ends

.subckt sky130_fd_sc_hd__clkinv_1 A VGND VPWR Y VNB VPB
X0 Y A VPWR VPB sky130_fd_pr__pfet_01v8_hvt ad=2.268e+11p pd=2.22e+06u as=4.536e+11p ps=4.44e+06u w=840000u l=150000u
X1 VGND A Y VNB sky130_fd_pr__nfet_01v8 ad=1.197e+11p pd=1.41e+06u as=1.092e+11p ps=1.36e+06u w=420000u l=150000u
X2 VPWR A Y VPB sky130_fd_pr__pfet_01v8_hvt ad=0p pd=0u as=0p ps=0u w=840000u l=150000u
.ends

.subckt quadgen clkin outa outb outc outd vcc gnd
Xsky130_fd_sc_hd__clkbuf_4_0 x9/D gnd vcc outc gnd vcc sky130_fd_sc_hd__clkbuf_4
Xsky130_fd_sc_hd__clkbuf_4_1 x10/Q gnd vcc outd gnd vcc sky130_fd_sc_hd__clkbuf_4
Xsky130_fd_sc_hd__clkbuf_4_2 x9/Q_N gnd vcc outb gnd vcc sky130_fd_sc_hd__clkbuf_4
Xsky130_fd_sc_hd__clkbuf_4_3 x9/Q gnd vcc outa gnd vcc sky130_fd_sc_hd__clkbuf_4
Xx9 clkin x9/D vcc gnd vcc x9/Q x9/Q_N gnd vcc sky130_fd_sc_hd__dfrbp_1
Xx10 x33/Y x9/Q vcc gnd vcc x10/Q x9/D gnd vcc sky130_fd_sc_hd__dfrbp_1
Xx33 clkin gnd vcc x33/Y gnd vcc sky130_fd_sc_hd__clkinv_1
C0 vcc 0 10.22fF
C1 gnd 0 4.13fF
.ends

.subckt sky130_fd_pr__res_xhigh_po_0p35_CXXGWF a_n34_1050# a_n34_n1482# a_n164_n1612#
X0 a_n34_n1482# a_n34_1050# a_n164_n1612# sky130_fd_pr__res_xhigh_po_0p35 l=1.05e+07u
.ends

.subckt sky130_fd_pr__res_xhigh_po_0p35_H2EET3 a_n34_3000# a_n34_n3432# a_n164_n3562#
X0 a_n34_n3432# a_n34_3000# a_n164_n3562# sky130_fd_pr__res_xhigh_po_0p35 l=3e+07u
.ends

.subckt sky130_fd_pr__pfet_01v8_TRXTS5 a_n50_n596# a_50_n500# a_n108_n500# w_n246_n718#
+ VSUBS
X0 a_50_n500# a_n50_n596# a_n108_n500# w_n246_n718# sky130_fd_pr__pfet_01v8 ad=1.45e+12p pd=1.058e+07u as=1.45e+12p ps=1.058e+07u w=5e+06u l=500000u
C0 w_n246_n718# VSUBS 2.84fF
.ends

.subckt sky130_fd_sc_hd__or4bb_1 A B C_N D_N VGND VPWR X VNB VPB
X0 VGND A a_311_413# VNB sky130_fd_pr__nfet_01v8 ad=5.5025e+11p pd=6.15e+06u as=2.331e+11p ps=2.79e+06u w=420000u l=150000u
X1 VPWR A a_561_297# VPB sky130_fd_pr__pfet_01v8_hvt ad=5.41725e+11p pd=5.32e+06u as=1.197e+11p ps=1.41e+06u w=420000u l=150000u
X2 a_393_413# a_205_93# a_311_413# VPB sky130_fd_pr__pfet_01v8_hvt ad=2.43e+11p pd=2.66e+06u as=1.092e+11p ps=1.36e+06u w=420000u l=150000u
X3 VGND C_N a_27_410# VNB sky130_fd_pr__nfet_01v8 ad=0p pd=0u as=1.092e+11p ps=1.36e+06u w=420000u l=150000u
X4 VPWR C_N a_27_410# VPB sky130_fd_pr__pfet_01v8_hvt ad=0p pd=0u as=1.092e+11p ps=1.36e+06u w=420000u l=150000u
X5 X a_311_413# VPWR VPB sky130_fd_pr__pfet_01v8_hvt ad=2.75e+11p pd=2.55e+06u as=0p ps=0u w=1e+06u l=150000u
X6 VGND a_27_410# a_311_413# VNB sky130_fd_pr__nfet_01v8 ad=0p pd=0u as=0p ps=0u w=420000u l=150000u
X7 a_561_297# B a_489_297# VPB sky130_fd_pr__pfet_01v8_hvt ad=0p pd=0u as=8.82e+10p ps=1.26e+06u w=420000u l=150000u
X8 a_205_93# D_N VGND VNB sky130_fd_pr__nfet_01v8 ad=1.092e+11p pd=1.36e+06u as=0p ps=0u w=420000u l=150000u
X9 a_205_93# D_N VPWR VPB sky130_fd_pr__pfet_01v8_hvt ad=1.176e+11p pd=1.4e+06u as=0p ps=0u w=420000u l=150000u
X10 a_489_297# a_27_410# a_393_413# VPB sky130_fd_pr__pfet_01v8_hvt ad=0p pd=0u as=0p ps=0u w=420000u l=150000u
X11 a_311_413# B VGND VNB sky130_fd_pr__nfet_01v8 ad=0p pd=0u as=0p ps=0u w=420000u l=150000u
X12 a_311_413# a_205_93# VGND VNB sky130_fd_pr__nfet_01v8 ad=0p pd=0u as=0p ps=0u w=420000u l=150000u
X13 X a_311_413# VGND VNB sky130_fd_pr__nfet_01v8 ad=1.7875e+11p pd=1.85e+06u as=0p ps=0u w=650000u l=150000u
.ends

.subckt clkdiv input output x7/D vcc x6/D x5/D gnd
Xx101 x5/D x6/D output x7/D gnd vcc x101/X gnd vcc sky130_fd_sc_hd__or4bb_1
Xx5 input x5/D x101/X gnd vcc x5/Q x5/D gnd vcc sky130_fd_sc_hd__dfrbp_1
Xx6 x5/Q x6/D x101/X gnd vcc x6/Q x6/D gnd vcc sky130_fd_sc_hd__dfrbp_1
Xx7 x6/Q x7/D x101/X gnd vcc x7/Q x7/D gnd vcc sky130_fd_sc_hd__dfrbp_1
Xx8 x7/Q output x101/X gnd vcc x8/Q output gnd vcc sky130_fd_sc_hd__dfrbp_1
C0 x7/D gnd 2.13fF
C1 output gnd 2.58fF
C2 vcc gnd 20.20fF
.ends

.subckt sky130_fd_pr__cap_mim_m3_1_6ZNTNB m3_n1186_n1040# c1_n1146_n1000# VSUBS
X0 c1_n1146_n1000# m3_n1186_n1040# sky130_fd_pr__cap_mim_m3_1 l=1e+07u w=1e+07u
C0 m3_n1186_n1040# c1_n1146_n1000# 8.43fF
C1 m3_n1186_n1040# VSUBS 3.76fF
.ends

.subckt sky130_fd_pr__nfet_01v8_JDBWNB a_n108_n1000# a_50_n1000# a_n210_n1174# a_n50_n1088#
X0 a_50_n1000# a_n50_n1088# a_n108_n1000# a_n210_n1174# sky130_fd_pr__nfet_01v8 ad=2.9e+12p pd=2.058e+07u as=2.9e+12p ps=2.058e+07u w=1e+07u l=500000u
.ends

.subckt sky130_fd_pr__res_xhigh_po_5p73_WAQYE6 a_n573_516# a_n703_n1078# a_n573_n948#
X0 a_n573_n948# a_n573_516# a_n703_n1078# sky130_fd_pr__res_xhigh_po_5p73 l=5.16e+06u
C0 a_n573_n948# a_n703_n1078# 2.06fF
C1 a_n573_516# a_n703_n1078# 2.06fF
.ends

.subckt sky130_fd_sc_hd__bufbuf_8 A VGND VPWR X VNB VPB
X0 a_318_47# a_206_47# VPWR VPB sky130_fd_pr__pfet_01v8_hvt ad=5.3e+11p pd=5.06e+06u as=1.918e+12p ps=1.789e+07u w=1e+06u l=150000u
X1 VPWR a_318_47# X VPB sky130_fd_pr__pfet_01v8_hvt ad=0p pd=0u as=1.08e+12p ps=1.016e+07u w=1e+06u l=150000u
X2 VPWR a_206_47# a_318_47# VPB sky130_fd_pr__pfet_01v8_hvt ad=0p pd=0u as=0p ps=0u w=1e+06u l=150000u
X3 X a_318_47# VGND VNB sky130_fd_pr__nfet_01v8 ad=7.02e+11p pd=7.36e+06u as=1.247e+12p ps=1.299e+07u w=650000u l=150000u
X4 X a_318_47# VPWR VPB sky130_fd_pr__pfet_01v8_hvt ad=0p pd=0u as=0p ps=0u w=1e+06u l=150000u
X5 VPWR a_318_47# X VPB sky130_fd_pr__pfet_01v8_hvt ad=0p pd=0u as=0p ps=0u w=1e+06u l=150000u
X6 X a_318_47# VPWR VPB sky130_fd_pr__pfet_01v8_hvt ad=0p pd=0u as=0p ps=0u w=1e+06u l=150000u
X7 VGND a_206_47# a_318_47# VNB sky130_fd_pr__nfet_01v8 ad=0p pd=0u as=3.445e+11p ps=3.66e+06u w=650000u l=150000u
X8 VPWR a_318_47# X VPB sky130_fd_pr__pfet_01v8_hvt ad=0p pd=0u as=0p ps=0u w=1e+06u l=150000u
X9 X a_318_47# VPWR VPB sky130_fd_pr__pfet_01v8_hvt ad=0p pd=0u as=0p ps=0u w=1e+06u l=150000u
X10 a_318_47# a_206_47# VGND VNB sky130_fd_pr__nfet_01v8 ad=0p pd=0u as=0p ps=0u w=650000u l=150000u
X11 X a_318_47# VGND VNB sky130_fd_pr__nfet_01v8 ad=0p pd=0u as=0p ps=0u w=650000u l=150000u
X12 a_206_47# a_27_47# VGND VNB sky130_fd_pr__nfet_01v8 ad=1.69e+11p pd=1.82e+06u as=0p ps=0u w=650000u l=150000u
X13 X a_318_47# VGND VNB sky130_fd_pr__nfet_01v8 ad=0p pd=0u as=0p ps=0u w=650000u l=150000u
X14 a_206_47# a_27_47# VPWR VPB sky130_fd_pr__pfet_01v8_hvt ad=2.6e+11p pd=2.52e+06u as=0p ps=0u w=1e+06u l=150000u
X15 VPWR a_318_47# X VPB sky130_fd_pr__pfet_01v8_hvt ad=0p pd=0u as=0p ps=0u w=1e+06u l=150000u
X16 VGND a_206_47# a_318_47# VNB sky130_fd_pr__nfet_01v8 ad=0p pd=0u as=0p ps=0u w=650000u l=150000u
X17 VGND a_318_47# X VNB sky130_fd_pr__nfet_01v8 ad=0p pd=0u as=0p ps=0u w=650000u l=150000u
X18 VGND a_318_47# X VNB sky130_fd_pr__nfet_01v8 ad=0p pd=0u as=0p ps=0u w=650000u l=150000u
X19 VGND a_318_47# X VNB sky130_fd_pr__nfet_01v8 ad=0p pd=0u as=0p ps=0u w=650000u l=150000u
X20 X a_318_47# VPWR VPB sky130_fd_pr__pfet_01v8_hvt ad=0p pd=0u as=0p ps=0u w=1e+06u l=150000u
X21 VGND a_318_47# X VNB sky130_fd_pr__nfet_01v8 ad=0p pd=0u as=0p ps=0u w=650000u l=150000u
X22 VPWR a_206_47# a_318_47# VPB sky130_fd_pr__pfet_01v8_hvt ad=0p pd=0u as=0p ps=0u w=1e+06u l=150000u
X23 VPWR A a_27_47# VPB sky130_fd_pr__pfet_01v8_hvt ad=0p pd=0u as=1.664e+11p ps=1.8e+06u w=640000u l=150000u
X24 VGND A a_27_47# VNB sky130_fd_pr__nfet_01v8 ad=0p pd=0u as=1.092e+11p ps=1.36e+06u w=420000u l=150000u
X25 X a_318_47# VGND VNB sky130_fd_pr__nfet_01v8 ad=0p pd=0u as=0p ps=0u w=650000u l=150000u
.ends

.subckt sky130_fd_sc_hd__clkdlybuf4s50_1 A VGND VPWR X VNB VPB
X0 a_283_47# a_27_47# VPWR VPB sky130_fd_pr__pfet_01v8_hvt ad=2.173e+11p pd=2.17e+06u as=6.517e+11p ps=5.37e+06u w=820000u l=500000u
X1 VPWR A a_27_47# VPB sky130_fd_pr__pfet_01v8_hvt ad=0p pd=0u as=2.7e+11p ps=2.54e+06u w=1e+06u l=150000u
X2 VPWR a_283_47# a_390_47# VPB sky130_fd_pr__pfet_01v8_hvt ad=0p pd=0u as=2.173e+11p ps=2.17e+06u w=820000u l=500000u
X3 VGND a_283_47# a_390_47# VNB sky130_fd_pr__nfet_01v8 ad=4.027e+11p pd=3.97e+06u as=1.7225e+11p ps=1.83e+06u w=650000u l=500000u
X4 X a_390_47# VPWR VPB sky130_fd_pr__pfet_01v8_hvt ad=3.55e+11p pd=2.71e+06u as=0p ps=0u w=1e+06u l=150000u
X5 VGND A a_27_47# VNB sky130_fd_pr__nfet_01v8 ad=0p pd=0u as=1.134e+11p ps=1.38e+06u w=420000u l=150000u
X6 a_283_47# a_27_47# VGND VNB sky130_fd_pr__nfet_01v8 ad=1.69e+11p pd=1.82e+06u as=0p ps=0u w=650000u l=500000u
X7 X a_390_47# VGND VNB sky130_fd_pr__nfet_01v8 ad=1.491e+11p pd=1.55e+06u as=0p ps=0u w=420000u l=150000u
.ends

.subckt sky130_fd_pr__pfet_01v8_XGA8MR a_n72_n1000# a_n32_n1096# w_n210_n1218# a_14_n1000#
+ VSUBS
X0 a_14_n1000# a_n32_n1096# a_n72_n1000# w_n210_n1218# sky130_fd_pr__pfet_01v8 ad=2.9e+12p pd=2.058e+07u as=2.9e+12p ps=2.058e+07u w=1e+07u l=140000u
C0 w_n210_n1218# VSUBS 4.19fF
.ends

.subckt sky130_fd_pr__nfet_01v8_A5ES5P a_n73_n1000# a_15_n1000# a_n33_n1088# a_n175_n1174#
X0 a_15_n1000# a_n33_n1088# a_n73_n1000# a_n175_n1174# sky130_fd_pr__nfet_01v8 ad=2.9e+12p pd=2.058e+07u as=2.9e+12p ps=2.058e+07u w=1e+07u l=150000u
.ends

.subckt sky130_fd_sc_hd__nand2_1 A B VGND VPWR Y VNB VPB
X0 VPWR A Y VPB sky130_fd_pr__pfet_01v8_hvt ad=5.2e+11p pd=5.04e+06u as=2.7e+11p ps=2.54e+06u w=1e+06u l=150000u
X1 Y A a_113_47# VNB sky130_fd_pr__nfet_01v8 ad=1.69e+11p pd=1.82e+06u as=1.755e+11p ps=1.84e+06u w=650000u l=150000u
X2 a_113_47# B VGND VNB sky130_fd_pr__nfet_01v8 ad=0p pd=0u as=1.69e+11p ps=1.82e+06u w=650000u l=150000u
X3 Y B VPWR VPB sky130_fd_pr__pfet_01v8_hvt ad=0p pd=0u as=0p ps=0u w=1e+06u l=150000u
.ends

.subckt phasecmp a b out vcc VSUBS
XXR17 out VSUBS m1_5220_n910# sky130_fd_pr__res_xhigh_po_5p73_WAQYE6
Xx30 x39/B VSUBS vcc x30/X VSUBS vcc sky130_fd_sc_hd__bufbuf_8
Xx31 x39/Y VSUBS vcc x31/X VSUBS vcc sky130_fd_sc_hd__clkdlybuf4s50_1
XXM108 m1_5220_n910# x162/X vcc vcc VSUBS sky130_fd_pr__pfet_01v8_XGA8MR
XXM109 m1_5220_n910# VSUBS x30/X VSUBS sky130_fd_pr__nfet_01v8_A5ES5P
Xx28 b x31/X x31/X VSUBS vcc x39/B x28/Q_N VSUBS vcc sky130_fd_sc_hd__dfrbp_1
Xx39 x39/A x39/B VSUBS vcc x39/Y VSUBS vcc sky130_fd_sc_hd__nand2_1
Xx29 a x31/X x31/X VSUBS vcc x39/A x162/A VSUBS vcc sky130_fd_sc_hd__dfrbp_1
Xx162 x162/A VSUBS vcc x162/X VSUBS vcc sky130_fd_sc_hd__bufbuf_8
C0 x39/B VSUBS 2.60fF
C1 m1_5220_n910# VSUBS 3.80fF
C2 out VSUBS 2.41fF
C3 vcc VSUBS 21.18fF
.ends

.subckt sky130_fd_pr__pfet_01v8_XM7B29 a_n108_n1000# w_n246_n1218# a_n50_n1096# a_50_n1000#
+ VSUBS
X0 a_50_n1000# a_n50_n1096# a_n108_n1000# w_n246_n1218# sky130_fd_pr__pfet_01v8 ad=2.9e+12p pd=2.058e+07u as=2.9e+12p ps=2.058e+07u w=1e+07u l=500000u
C0 w_n246_n1218# VSUBS 4.73fF
.ends

.subckt sky130_fd_pr__res_xhigh_po_5p73_F7BMVG a_n572_n1432# a_n702_n1562# a_n572_1000#
X0 a_n572_n1432# a_n572_1000# a_n702_n1562# sky130_fd_pr__res_xhigh_po_5p73 l=1e+07u
C0 a_n572_n1432# a_n702_n1562# 2.20fF
C1 a_n572_1000# a_n702_n1562# 2.20fF
.ends

.subckt sky130_fd_pr__pfet_01v8_lvt_X3MKZ5 a_n108_n1000# w_n246_n1219# a_n50_n1097#
+ a_50_n1000# VSUBS
X0 a_50_n1000# a_n50_n1097# a_n108_n1000# w_n246_n1219# sky130_fd_pr__pfet_01v8_lvt ad=2.9e+12p pd=2.058e+07u as=2.9e+12p ps=2.058e+07u w=1e+07u l=500000u
C0 w_n246_n1219# VSUBS 4.74fF
.ends

.subckt sky130_fd_pr__pfet_01v8_lvt_X3N7Y6 a_n108_n300# w_n246_n518# a_n50_n396# a_50_n300#
+ VSUBS
X0 a_50_n300# a_n50_n396# a_n108_n300# w_n246_n518# sky130_fd_pr__pfet_01v8_lvt ad=8.7e+11p pd=6.58e+06u as=8.7e+11p ps=6.58e+06u w=3e+06u l=500000u
C0 w_n246_n518# VSUBS 2.10fF
.ends

.subckt sky130_fd_pr__nfet_01v8_lvt_MYKW3H a_n50_n5988# a_n108_n5900# a_n210_n6074#
+ a_50_n5900#
X0 a_50_n5900# a_n50_n5988# a_n108_n5900# a_n210_n6074# sky130_fd_pr__nfet_01v8_lvt ad=1.711e+13p pd=1.1858e+08u as=1.711e+13p ps=1.1858e+08u w=5.9e+07u l=500000u
C0 a_50_n5900# a_n108_n5900# 5.30fF
C1 a_50_n5900# a_n210_n6074# 4.54fF
C2 a_n108_n5900# a_n210_n6074# 5.94fF
.ends

.subckt sky130_fd_pr__res_xhigh_po_0p69_FR2N8V a_n68_1040# a_n198_n1602# a_n68_n1472#
X0 a_n68_n1472# a_n68_1040# a_n198_n1602# sky130_fd_pr__res_xhigh_po_0p69 l=1.04e+07u
.ends

.subckt sky130_fd_pr__res_high_po_2p85_HV4VUF a_n284_1000# a_n284_n1432# a_n414_n1562#
X0 a_n284_n1432# a_n284_1000# a_n414_n1562# sky130_fd_pr__res_high_po_2p85 l=1e+07u
.ends

.subckt sky130_fd_pr__cap_mim_m3_1_KYM84V m3_n886_n740# c1_n846_n700# VSUBS
X0 c1_n846_n700# m3_n886_n740# sky130_fd_pr__cap_mim_m3_1 l=7e+06u w=7e+06u
C0 c1_n846_n700# m3_n886_n740# 3.98fF
C1 m3_n886_n740# VSUBS 2.44fF
.ends

.subckt sky130_fd_pr__nfet_01v8_lvt_8TEW3F a_50_n500# a_n108_n500# a_n50_n588# a_n210_n674#
X0 a_50_n500# a_n50_n588# a_n108_n500# a_n210_n674# sky130_fd_pr__nfet_01v8_lvt ad=1.45e+12p pd=1.058e+07u as=1.45e+12p ps=1.058e+07u w=5e+06u l=500000u
.ends

.subckt sky130_fd_pr__pfet_01v8_lvt_X3MVBA a_n108_n5000# w_n246_n5219# a_n50_n5097#
+ a_50_n5000# VSUBS
X0 a_50_n5000# a_n50_n5097# a_n108_n5000# w_n246_n5219# sky130_fd_pr__pfet_01v8_lvt ad=1.45e+13p pd=1.0058e+08u as=1.45e+13p ps=1.0058e+08u w=5e+07u l=500000u
C0 a_n108_n5000# a_50_n5000# 4.49fF
C1 a_n108_n5000# w_n246_n5219# 3.05fF
C2 w_n246_n5219# VSUBS 19.79fF
.ends

.subckt opamp vcc inv noninv output gnd
XXM56 m1_n2590_4110# vcc m1_n540_4980# vcc gnd sky130_fd_pr__pfet_01v8_lvt_X3MKZ5
XXM58 m1_n540_3980# vcc m1_n540_3980# m1_n540_4980# gnd sky130_fd_pr__pfet_01v8_lvt_X3N7Y6
XXM57 li_1325_1915# output gnd gnd sky130_fd_pr__nfet_01v8_lvt_MYKW3H
XXM59 m1_n2580_3900# vcc m1_n540_3980# m1_n2590_4110# gnd sky130_fd_pr__pfet_01v8_lvt_X3MKZ5
XXR17 m1_n540_3980# gnd gnd sky130_fd_pr__res_xhigh_po_0p69_FR2N8V
XXR18 li_1325_1915# m1_3740_2320# gnd sky130_fd_pr__res_high_po_2p85_HV4VUF
XXC6 m1_3740_2320# output gnd sky130_fd_pr__cap_mim_m3_1_KYM84V
XXM60 gnd m1_n2710_330# m1_n2710_330# gnd sky130_fd_pr__nfet_01v8_lvt_8TEW3F
XXM61 li_1325_1915# gnd m1_n2710_330# gnd sky130_fd_pr__nfet_01v8_lvt_8TEW3F
XXM62 vcc vcc m1_n540_4980# m1_1210_4110# gnd sky130_fd_pr__pfet_01v8_lvt_X3MVBA
XXM63 m1_1210_4110# vcc m1_n540_3980# output gnd sky130_fd_pr__pfet_01v8_lvt_X3MVBA
XXM53 m1_n540_4980# vcc m1_n540_4980# vcc gnd sky130_fd_pr__pfet_01v8_lvt_X3N7Y6
XXM54 m1_n2710_330# vcc inv m1_n2580_3900# gnd sky130_fd_pr__pfet_01v8_lvt_X3N7Y6
XXM55 m1_n2580_3900# vcc noninv li_1325_1915# gnd sky130_fd_pr__pfet_01v8_lvt_X3N7Y6
C0 vcc output 2.52fF
C1 vcc m1_1210_4110# 6.48fF
C2 li_1325_1915# gnd 7.65fF
C3 m1_n2710_330# gnd 3.89fF
C4 vcc gnd 65.60fF
C5 m1_1210_4110# gnd 5.83fF
C6 m1_3740_2320# gnd 3.39fF
C7 m1_n540_3980# gnd 2.66fF
C8 output gnd 11.47fF
.ends

.subckt sky130_fd_pr__pfet_01v8_lvt_X3MKZ5#0 a_n108_n1000# w_n246_n1218# a_n50_n1096#
+ a_50_n1000# VSUBS
X0 a_50_n1000# a_n50_n1096# a_n108_n1000# w_n246_n1218# sky130_fd_pr__pfet_01v8_lvt ad=2.9e+12p pd=2.058e+07u as=2.9e+12p ps=2.058e+07u w=1e+07u l=500000u
C0 w_n246_n1218# VSUBS 4.73fF
.ends

.subckt sky130_fd_pr__res_xhigh_po_0p69_LVNRZ4 a_n68_690# a_n198_n1252# a_n68_n1122#
X0 a_n68_n1122# a_n68_690# a_n198_n1252# sky130_fd_pr__res_xhigh_po_0p69 l=6.9e+06u
.ends

.subckt sky130_fd_pr__res_xhigh_po_0p35_4XRDQ9 a_n165_n1462# a_n35_900# a_n35_n1332#
X0 a_n35_n1332# a_n35_900# a_n165_n1462# sky130_fd_pr__res_xhigh_po_0p35 l=9e+06u
.ends

.subckt sky130_fd_pr__res_xhigh_po_2p85_QPY2BD a_n284_950# a_n284_n1382# a_n414_n1512#
X0 a_n284_n1382# a_n284_950# a_n414_n1512# sky130_fd_pr__res_xhigh_po_2p85 l=9.5e+06u
.ends

.subckt sky130_fd_pr__cap_mim_m3_1_NUYDZ7 c1_n3046_n9020# m3_n3086_n9060# VSUBS
X0 c1_n3046_n9020# m3_n3086_n9060# sky130_fd_pr__cap_mim_m3_1 l=2.9e+07u w=2.9e+07u
X1 c1_n3046_n9020# m3_n3086_n9060# sky130_fd_pr__cap_mim_m3_1 l=2.9e+07u w=2.9e+07u
X2 c1_n3046_n9020# m3_n3086_n9060# sky130_fd_pr__cap_mim_m3_1 l=2.9e+07u w=2.9e+07u
C0 m3_n3086_n9060# c1_n3046_n9020# 213.36fF
C1 c1_n3046_n9020# VSUBS 6.01fF
C2 m3_n3086_n9060# VSUBS 48.16fF
.ends

.subckt sky130_fd_pr__cap_mim_m3_1_4BCNTW c1_n2146_n6160# m3_n2186_n6200# VSUBS
X0 c1_n2146_n6160# m3_n2186_n6200# sky130_fd_pr__cap_mim_m3_1 l=3e+07u w=2e+07u
X1 c1_n2146_n6160# m3_n2186_n6200# sky130_fd_pr__cap_mim_m3_1 l=3e+07u w=2e+07u
C0 m3_n2186_n6200# c1_n2146_n6160# 101.32fF
C1 c1_n2146_n6160# VSUBS 4.01fF
C2 m3_n2186_n6200# VSUBS 26.09fF
.ends

.subckt sky130_fd_pr__cap_mim_m3_1_WQBFSJ c1_n1546_n1400# m3_n1586_n1440# VSUBS
X0 c1_n1546_n1400# m3_n1586_n1440# sky130_fd_pr__cap_mim_m3_1 l=1.4e+07u w=1.4e+07u
C0 m3_n1586_n1440# c1_n1546_n1400# 16.52fF
C1 m3_n1586_n1440# VSUBS 5.86fF
.ends

.subckt filter vcc input out pb m1_21449_n33397# gnd
XXM24 vcc vcc pb out gnd sky130_fd_pr__pfet_01v8_lvt_X3MKZ5#0
XXM26 out vcc m1_19330_n37886# gnd gnd sky130_fd_pr__pfet_01v8_lvt_X3MKZ5#0
XXR23 m1_20970_n34050# gnd m1_19330_n37886# sky130_fd_pr__res_xhigh_po_0p69_LVNRZ4
Xsky130_fd_pr__res_xhigh_po_0p35_4XRDQ9_0 gnd m1_21449_n33397# m1_20970_n34050# sky130_fd_pr__res_xhigh_po_0p35_4XRDQ9
XXR7 m1_21449_n33397# input gnd sky130_fd_pr__res_xhigh_po_2p85_QPY2BD
XXC27 m1_21449_n33397# gnd gnd sky130_fd_pr__cap_mim_m3_1_NUYDZ7
XXC4 out m1_20970_n34050# gnd sky130_fd_pr__cap_mim_m3_1_4BCNTW
Xsky130_fd_pr__cap_mim_m3_1_WQBFSJ_0 m1_19330_n37886# gnd gnd sky130_fd_pr__cap_mim_m3_1_WQBFSJ
C0 out gnd 7.77fF
C1 m1_20970_n34050# gnd 28.61fF
C2 m1_21449_n33397# gnd 14.63fF
C3 input gnd 2.57fF
C4 m1_19330_n37886# gnd 5.29fF
C5 vcc gnd 10.27fF
.ends

.subckt sky130_fd_pr__cap_mim_m3_1_MJA9VW m3_n2686_n2540# c1_n2646_n2500# VSUBS
X0 c1_n2646_n2500# m3_n2686_n2540# sky130_fd_pr__cap_mim_m3_1 l=2.5e+07u w=2.5e+07u
C0 c1_n2646_n2500# m3_n2686_n2540# 52.62fF
C1 c1_n2646_n2500# VSUBS 2.65fF
C2 m3_n2686_n2540# VSUBS 13.68fF
.ends

.subckt sky130_fd_sc_hd__clkbuf_16 A VGND VPWR X VNB VPB
X0 VPWR A a_110_47# VPB sky130_fd_pr__pfet_01v8_hvt ad=3.045e+12p pd=2.809e+07u as=5.6e+11p ps=5.12e+06u w=1e+06u l=150000u
X1 VPWR a_110_47# X VPB sky130_fd_pr__pfet_01v8_hvt ad=0p pd=0u as=2.24e+12p ps=2.048e+07u w=1e+06u l=150000u
X2 X a_110_47# VPWR VPB sky130_fd_pr__pfet_01v8_hvt ad=0p pd=0u as=0p ps=0u w=1e+06u l=150000u
X3 X a_110_47# VPWR VPB sky130_fd_pr__pfet_01v8_hvt ad=0p pd=0u as=0p ps=0u w=1e+06u l=150000u
X4 VPWR a_110_47# X VPB sky130_fd_pr__pfet_01v8_hvt ad=0p pd=0u as=0p ps=0u w=1e+06u l=150000u
X5 VPWR a_110_47# X VPB sky130_fd_pr__pfet_01v8_hvt ad=0p pd=0u as=0p ps=0u w=1e+06u l=150000u
X6 a_110_47# A VPWR VPB sky130_fd_pr__pfet_01v8_hvt ad=0p pd=0u as=0p ps=0u w=1e+06u l=150000u
X7 a_110_47# A VGND VNB sky130_fd_pr__nfet_01v8 ad=2.352e+11p pd=2.8e+06u as=1.2789e+12p ps=1.533e+07u w=420000u l=150000u
X8 VGND a_110_47# X VNB sky130_fd_pr__nfet_01v8 ad=0p pd=0u as=9.408e+11p ps=1.12e+07u w=420000u l=150000u
X9 X a_110_47# VGND VNB sky130_fd_pr__nfet_01v8 ad=0p pd=0u as=0p ps=0u w=420000u l=150000u
X10 VGND a_110_47# X VNB sky130_fd_pr__nfet_01v8 ad=0p pd=0u as=0p ps=0u w=420000u l=150000u
X11 a_110_47# A VPWR VPB sky130_fd_pr__pfet_01v8_hvt ad=0p pd=0u as=0p ps=0u w=1e+06u l=150000u
X12 VGND A a_110_47# VNB sky130_fd_pr__nfet_01v8 ad=0p pd=0u as=0p ps=0u w=420000u l=150000u
X13 VGND a_110_47# X VNB sky130_fd_pr__nfet_01v8 ad=0p pd=0u as=0p ps=0u w=420000u l=150000u
X14 VPWR a_110_47# X VPB sky130_fd_pr__pfet_01v8_hvt ad=0p pd=0u as=0p ps=0u w=1e+06u l=150000u
X15 X a_110_47# VPWR VPB sky130_fd_pr__pfet_01v8_hvt ad=0p pd=0u as=0p ps=0u w=1e+06u l=150000u
X16 VGND A a_110_47# VNB sky130_fd_pr__nfet_01v8 ad=0p pd=0u as=0p ps=0u w=420000u l=150000u
X17 VGND a_110_47# X VNB sky130_fd_pr__nfet_01v8 ad=0p pd=0u as=0p ps=0u w=420000u l=150000u
X18 VPWR a_110_47# X VPB sky130_fd_pr__pfet_01v8_hvt ad=0p pd=0u as=0p ps=0u w=1e+06u l=150000u
X19 VGND a_110_47# X VNB sky130_fd_pr__nfet_01v8 ad=0p pd=0u as=0p ps=0u w=420000u l=150000u
X20 X a_110_47# VPWR VPB sky130_fd_pr__pfet_01v8_hvt ad=0p pd=0u as=0p ps=0u w=1e+06u l=150000u
X21 a_110_47# A VGND VNB sky130_fd_pr__nfet_01v8 ad=0p pd=0u as=0p ps=0u w=420000u l=150000u
X22 VPWR A a_110_47# VPB sky130_fd_pr__pfet_01v8_hvt ad=0p pd=0u as=0p ps=0u w=1e+06u l=150000u
X23 VPWR a_110_47# X VPB sky130_fd_pr__pfet_01v8_hvt ad=0p pd=0u as=0p ps=0u w=1e+06u l=150000u
X24 VPWR a_110_47# X VPB sky130_fd_pr__pfet_01v8_hvt ad=0p pd=0u as=0p ps=0u w=1e+06u l=150000u
X25 VGND a_110_47# X VNB sky130_fd_pr__nfet_01v8 ad=0p pd=0u as=0p ps=0u w=420000u l=150000u
X26 X a_110_47# VPWR VPB sky130_fd_pr__pfet_01v8_hvt ad=0p pd=0u as=0p ps=0u w=1e+06u l=150000u
X27 VGND a_110_47# X VNB sky130_fd_pr__nfet_01v8 ad=0p pd=0u as=0p ps=0u w=420000u l=150000u
X28 VGND a_110_47# X VNB sky130_fd_pr__nfet_01v8 ad=0p pd=0u as=0p ps=0u w=420000u l=150000u
X29 X a_110_47# VGND VNB sky130_fd_pr__nfet_01v8 ad=0p pd=0u as=0p ps=0u w=420000u l=150000u
X30 X a_110_47# VPWR VPB sky130_fd_pr__pfet_01v8_hvt ad=0p pd=0u as=0p ps=0u w=1e+06u l=150000u
X31 X a_110_47# VPWR VPB sky130_fd_pr__pfet_01v8_hvt ad=0p pd=0u as=0p ps=0u w=1e+06u l=150000u
X32 X a_110_47# VGND VNB sky130_fd_pr__nfet_01v8 ad=0p pd=0u as=0p ps=0u w=420000u l=150000u
X33 VPWR a_110_47# X VPB sky130_fd_pr__pfet_01v8_hvt ad=0p pd=0u as=0p ps=0u w=1e+06u l=150000u
X34 X a_110_47# VPWR VPB sky130_fd_pr__pfet_01v8_hvt ad=0p pd=0u as=0p ps=0u w=1e+06u l=150000u
X35 X a_110_47# VGND VNB sky130_fd_pr__nfet_01v8 ad=0p pd=0u as=0p ps=0u w=420000u l=150000u
X36 X a_110_47# VGND VNB sky130_fd_pr__nfet_01v8 ad=0p pd=0u as=0p ps=0u w=420000u l=150000u
X37 X a_110_47# VGND VNB sky130_fd_pr__nfet_01v8 ad=0p pd=0u as=0p ps=0u w=420000u l=150000u
X38 X a_110_47# VGND VNB sky130_fd_pr__nfet_01v8 ad=0p pd=0u as=0p ps=0u w=420000u l=150000u